*************************************************
   ChampSim Multicore Out-of-Order Simulator
   Last compiled: Dec 15 2022 10:26:13
*************************************************

trace_0 ./traces/482.sphinx3-1100B.champsimtrace.xz
Ultra pref. initializing...
Ultra pref. initialized
Ultra pref. initializing...
Ultra pref. initialized
warmup_instructions 50000000
simulation_instructions 100000000
champsim_seed 260

num_cpus 1
cpu_freq 4000
dram_io_freq 2400
page_size 4096
block_size 64
max_read_per_cycle 8
max_fill_per_cycle 1
dram_channels 1
dram_ranks 1
dram_banks 8
dram_rows 65536
dram_columns 128
dram_row_size 8
dram_size 4096
dram_pages 1048576

fetch_width 6
decode_width 6
exec_width 4
lq_width 2
sq_width 2
retire_width 4
scheduler_size 128
branch_mispredict_penalty 20
rob_size 256
lq_size 72
sq_size 56
num_instr_destinations_sparc 4
num_instr_destinations 2
num_instr_sources 4

itlb_set 16
itlb_way 8
itlb_rq_size 16
itlb_wq_size 16
itlb_pq_size 0
itlb_mshr_size 8
itlb_latency 1

dtlb_set 16
dtlb_way 4
dtlb_rq_size 16
dtlb_wq_size 16
dtlb_pq_size 0
dtlb_mshr_size 8
dtlb_latency 1

stlb_set 128
stlb_way 12
stlb_rq_size 32
stlb_wq_size 32
stlb_pq_size 0
stlb_mshr_size 16
stlb_latency 8

l1i_size 32
l1i_set 64
l1i_way 8
l1i_rq_size 64
l1i_wq_size 64
l1i_pq_size 8
l1i_mshr_size 8
l1i_latency 1

l1d_size 32
l1d_set 64
l1d_way 8
l1d_rq_size 64
l1d_wq_size 64
l1d_pq_size 8
l1d_mshr_size 16
l1d_latency 4

l2c_size 512
l2c_set 1024
l2c_way 8
l2c_rq_size 32
l2c_wq_size 32
l2c_pq_size 16
l2c_mshr_size 32
l2c_latency 10

llc_size 2048
llc_set 2048
llc_way 16
llc_rq_size 32
llc_wq_size 32
llc_pq_size 32
llc_mshr_size 64
llc_latency 20

dram_channel_width 8
dram_wq_size 64
dram_rq_size 64
tRP 15
tRCD 15
tCAS 12.5
dram_dbus_turn_around_time 30
dram_write_high_wm 56
dram_write_low_wm 48
min_dram_writes_per_switch 16
dram_mtps 2400
dram_dbus_return_time 13


Heartbeat CPU  0 instructions:    1000001 cycles:     367568 heartbeat IPC: 2.72059 cumulative IPC: 2.72059 (Simulation time: 0 hr 0 min 1 sec) 
Heartbeat CPU  0 instructions:    2000003 cycles:     794481 heartbeat IPC: 2.34240 cumulative IPC: 2.51737 (Simulation time: 0 hr 0 min 3 sec) 
Heartbeat CPU  0 instructions:    3000001 cycles:    1251464 heartbeat IPC: 2.18826 cumulative IPC: 2.39719 (Simulation time: 0 hr 0 min 4 sec) 
Heartbeat CPU  0 instructions:    4000000 cycles:    1733415 heartbeat IPC: 2.07490 cumulative IPC: 2.30758 (Simulation time: 0 hr 0 min 6 sec) 
Heartbeat CPU  0 instructions:    5000000 cycles:    2175369 heartbeat IPC: 2.26268 cumulative IPC: 2.29846 (Simulation time: 0 hr 0 min 7 sec) 
Heartbeat CPU  0 instructions:    6000001 cycles:    2542487 heartbeat IPC: 2.72392 cumulative IPC: 2.35989 (Simulation time: 0 hr 0 min 8 sec) 
Heartbeat CPU  0 instructions:    7000000 cycles:    2933176 heartbeat IPC: 2.55958 cumulative IPC: 2.38649 (Simulation time: 0 hr 0 min 10 sec) 
Heartbeat CPU  0 instructions:    8000000 cycles:    3391176 heartbeat IPC: 2.18341 cumulative IPC: 2.35906 (Simulation time: 0 hr 0 min 11 sec) 
Heartbeat CPU  0 instructions:    9000000 cycles:    3848728 heartbeat IPC: 2.18554 cumulative IPC: 2.33843 (Simulation time: 0 hr 0 min 13 sec) 
Heartbeat CPU  0 instructions:   10000000 cycles:    4338426 heartbeat IPC: 2.04207 cumulative IPC: 2.30498 (Simulation time: 0 hr 0 min 14 sec) 
Heartbeat CPU  0 instructions:   11000001 cycles:    4710457 heartbeat IPC: 2.68795 cumulative IPC: 2.33523 (Simulation time: 0 hr 0 min 16 sec) 
Heartbeat CPU  0 instructions:   12000000 cycles:    5077504 heartbeat IPC: 2.72444 cumulative IPC: 2.36337 (Simulation time: 0 hr 0 min 17 sec) 
Heartbeat CPU  0 instructions:   13000001 cycles:    5526233 heartbeat IPC: 2.22852 cumulative IPC: 2.35242 (Simulation time: 0 hr 0 min 19 sec) 
Heartbeat CPU  0 instructions:   14000000 cycles:    5983822 heartbeat IPC: 2.18536 cumulative IPC: 2.33964 (Simulation time: 0 hr 0 min 20 sec) 
Heartbeat CPU  0 instructions:   15000000 cycles:    6465802 heartbeat IPC: 2.07477 cumulative IPC: 2.31990 (Simulation time: 0 hr 0 min 21 sec) 
Heartbeat CPU  0 instructions:   16000000 cycles:    6875373 heartbeat IPC: 2.44158 cumulative IPC: 2.32715 (Simulation time: 0 hr 0 min 23 sec) 
Heartbeat CPU  0 instructions:   17000003 cycles:    7242542 heartbeat IPC: 2.72355 cumulative IPC: 2.34724 (Simulation time: 0 hr 0 min 24 sec) 
Heartbeat CPU  0 instructions:   18000003 cycles:    7654122 heartbeat IPC: 2.42966 cumulative IPC: 2.35167 (Simulation time: 0 hr 0 min 26 sec) 
Heartbeat CPU  0 instructions:   19000003 cycles:    8111555 heartbeat IPC: 2.18611 cumulative IPC: 2.34234 (Simulation time: 0 hr 0 min 27 sec) 
Heartbeat CPU  0 instructions:   20000000 cycles:    8579537 heartbeat IPC: 2.13683 cumulative IPC: 2.33113 (Simulation time: 0 hr 0 min 29 sec) 
Heartbeat CPU  0 instructions:   21000002 cycles:    9038238 heartbeat IPC: 2.18007 cumulative IPC: 2.32346 (Simulation time: 0 hr 0 min 30 sec) 
Heartbeat CPU  0 instructions:   22000003 cycles:    9405250 heartbeat IPC: 2.72471 cumulative IPC: 2.33912 (Simulation time: 0 hr 0 min 32 sec) 
Heartbeat CPU  0 instructions:   23000001 cycles:    9785618 heartbeat IPC: 2.62903 cumulative IPC: 2.35039 (Simulation time: 0 hr 0 min 33 sec) 
Heartbeat CPU  0 instructions:   24000000 cycles:   10240412 heartbeat IPC: 2.19880 cumulative IPC: 2.34366 (Simulation time: 0 hr 0 min 35 sec) 
Heartbeat CPU  0 instructions:   25000002 cycles:   10695465 heartbeat IPC: 2.19755 cumulative IPC: 2.33744 (Simulation time: 0 hr 0 min 36 sec) 
Heartbeat CPU  0 instructions:   26000002 cycles:   11173788 heartbeat IPC: 2.09064 cumulative IPC: 2.32687 (Simulation time: 0 hr 0 min 38 sec) 
Heartbeat CPU  0 instructions:   27000001 cycles:   11566659 heartbeat IPC: 2.54536 cumulative IPC: 2.33430 (Simulation time: 0 hr 0 min 39 sec) 
Heartbeat CPU  0 instructions:   28000000 cycles:   11933540 heartbeat IPC: 2.72568 cumulative IPC: 2.34633 (Simulation time: 0 hr 0 min 41 sec) 
Heartbeat CPU  0 instructions:   29000001 cycles:   12369293 heartbeat IPC: 2.29488 cumulative IPC: 2.34452 (Simulation time: 0 hr 0 min 42 sec) 
Heartbeat CPU  0 instructions:   30000003 cycles:   12822295 heartbeat IPC: 2.20750 cumulative IPC: 2.33967 (Simulation time: 0 hr 0 min 43 sec) 
Heartbeat CPU  0 instructions:   31000002 cycles:   13275850 heartbeat IPC: 2.20480 cumulative IPC: 2.33507 (Simulation time: 0 hr 0 min 45 sec) 
Heartbeat CPU  0 instructions:   32000000 cycles:   13758687 heartbeat IPC: 2.07109 cumulative IPC: 2.32580 (Simulation time: 0 hr 0 min 46 sec) 
Heartbeat CPU  0 instructions:   33000003 cycles:   14159489 heartbeat IPC: 2.49501 cumulative IPC: 2.33059 (Simulation time: 0 hr 0 min 48 sec) 
Heartbeat CPU  0 instructions:   34000003 cycles:   14526398 heartbeat IPC: 2.72547 cumulative IPC: 2.34057 (Simulation time: 0 hr 0 min 49 sec) 
Heartbeat CPU  0 instructions:   35000000 cycles:   14952960 heartbeat IPC: 2.34432 cumulative IPC: 2.34067 (Simulation time: 0 hr 0 min 51 sec) 
Heartbeat CPU  0 instructions:   36000000 cycles:   15406080 heartbeat IPC: 2.20692 cumulative IPC: 2.33674 (Simulation time: 0 hr 0 min 52 sec) 
Heartbeat CPU  0 instructions:   37000000 cycles:   15859451 heartbeat IPC: 2.20570 cumulative IPC: 2.33299 (Simulation time: 0 hr 0 min 54 sec) 
Heartbeat CPU  0 instructions:   38000003 cycles:   16346884 heartbeat IPC: 2.05157 cumulative IPC: 2.32460 (Simulation time: 0 hr 0 min 55 sec) 
Heartbeat CPU  0 instructions:   39000001 cycles:   16753906 heartbeat IPC: 2.45686 cumulative IPC: 2.32782 (Simulation time: 0 hr 0 min 57 sec) 
Heartbeat CPU  0 instructions:   40000000 cycles:   17120929 heartbeat IPC: 2.72462 cumulative IPC: 2.33632 (Simulation time: 0 hr 0 min 58 sec) 
Heartbeat CPU  0 instructions:   41000003 cycles:   17540664 heartbeat IPC: 2.38246 cumulative IPC: 2.33743 (Simulation time: 0 hr 0 min 59 sec) 
Heartbeat CPU  0 instructions:   42000000 cycles:   17998031 heartbeat IPC: 2.18642 cumulative IPC: 2.33359 (Simulation time: 0 hr 1 min 1 sec) 
Heartbeat CPU  0 instructions:   43000001 cycles:   18453819 heartbeat IPC: 2.19400 cumulative IPC: 2.33014 (Simulation time: 0 hr 1 min 3 sec) 
Heartbeat CPU  0 instructions:   44000000 cycles:   18943571 heartbeat IPC: 2.04185 cumulative IPC: 2.32269 (Simulation time: 0 hr 1 min 4 sec) 
Heartbeat CPU  0 instructions:   45000002 cycles:   19355269 heartbeat IPC: 2.42897 cumulative IPC: 2.32495 (Simulation time: 0 hr 1 min 6 sec) 
Heartbeat CPU  0 instructions:   46000000 cycles:   19722468 heartbeat IPC: 2.72331 cumulative IPC: 2.33237 (Simulation time: 0 hr 1 min 7 sec) 
Heartbeat CPU  0 instructions:   47000002 cycles:   20135113 heartbeat IPC: 2.42340 cumulative IPC: 2.33423 (Simulation time: 0 hr 1 min 9 sec) 
Heartbeat CPU  0 instructions:   48000000 cycles:   20594293 heartbeat IPC: 2.17779 cumulative IPC: 2.33074 (Simulation time: 0 hr 1 min 10 sec) 
Heartbeat CPU  0 instructions:   49000003 cycles:   21050214 heartbeat IPC: 2.19337 cumulative IPC: 2.32777 (Simulation time: 0 hr 1 min 12 sec) 
Heartbeat CPU  0 instructions:   50000003 cycles:   21560536 heartbeat IPC: 1.95955 cumulative IPC: 2.31905 (Simulation time: 0 hr 1 min 13 sec) 

Warmup complete CPU  0 instructions:   50000003 cycles:   21560536 (Simulation time: 0 hr 1 min 13 sec) 

Heartbeat CPU  0 instructions:   51000002 cycles:   22425289 heartbeat IPC: 1.15640 cumulative IPC: 1.15640 (Simulation time: 0 hr 1 min 15 sec) 
Heartbeat CPU  0 instructions:   52000000 cycles:   23038676 heartbeat IPC: 1.63029 cumulative IPC: 1.35305 (Simulation time: 0 hr 1 min 16 sec) 
Heartbeat CPU  0 instructions:   53000001 cycles:   23605494 heartbeat IPC: 1.76424 cumulative IPC: 1.46702 (Simulation time: 0 hr 1 min 18 sec) 
Heartbeat CPU  0 instructions:   54000001 cycles:   24518113 heartbeat IPC: 1.09575 cumulative IPC: 1.35246 (Simulation time: 0 hr 1 min 19 sec) 
Heartbeat CPU  0 instructions:   55000001 cycles:   25424550 heartbeat IPC: 1.10322 cumulative IPC: 1.29399 (Simulation time: 0 hr 1 min 21 sec) 
Heartbeat CPU  0 instructions:   56000000 cycles:   26335806 heartbeat IPC: 1.09739 cumulative IPC: 1.25647 (Simulation time: 0 hr 1 min 22 sec) 
Heartbeat CPU  0 instructions:   57000003 cycles:   27434847 heartbeat IPC: 0.90989 cumulative IPC: 1.19163 (Simulation time: 0 hr 1 min 24 sec) 
Heartbeat CPU  0 instructions:   58000001 cycles:   28153109 heartbeat IPC: 1.39225 cumulative IPC: 1.21349 (Simulation time: 0 hr 1 min 25 sec) 
Heartbeat CPU  0 instructions:   59000001 cycles:   28717939 heartbeat IPC: 1.77044 cumulative IPC: 1.25744 (Simulation time: 0 hr 1 min 27 sec) 
Heartbeat CPU  0 instructions:   60000000 cycles:   29604937 heartbeat IPC: 1.12740 cumulative IPC: 1.24310 (Simulation time: 0 hr 1 min 28 sec) 
Heartbeat CPU  0 instructions:   61000000 cycles:   30511635 heartbeat IPC: 1.10290 cumulative IPC: 1.22890 (Simulation time: 0 hr 1 min 30 sec) 
Heartbeat CPU  0 instructions:   62000000 cycles:   31411107 heartbeat IPC: 1.11176 cumulative IPC: 1.21820 (Simulation time: 0 hr 1 min 32 sec) 
Heartbeat CPU  0 instructions:   63000000 cycles:   32546929 heartbeat IPC: 0.88042 cumulative IPC: 1.18328 (Simulation time: 0 hr 1 min 33 sec) 
Heartbeat CPU  0 instructions:   64000000 cycles:   33277825 heartbeat IPC: 1.36818 cumulative IPC: 1.19482 (Simulation time: 0 hr 1 min 35 sec) 
Heartbeat CPU  0 instructions:   65000001 cycles:   33843802 heartbeat IPC: 1.76686 cumulative IPC: 1.22117 (Simulation time: 0 hr 1 min 36 sec) 
Heartbeat CPU  0 instructions:   66000001 cycles:   34664593 heartbeat IPC: 1.21834 cumulative IPC: 1.22100 (Simulation time: 0 hr 1 min 38 sec) 
Heartbeat CPU  0 instructions:   67000001 cycles:   35578217 heartbeat IPC: 1.09454 cumulative IPC: 1.21275 (Simulation time: 0 hr 1 min 39 sec) 
Heartbeat CPU  0 instructions:   68000000 cycles:   36491840 heartbeat IPC: 1.09454 cumulative IPC: 1.20552 (Simulation time: 0 hr 1 min 41 sec) 
Heartbeat CPU  0 instructions:   69000001 cycles:   37615071 heartbeat IPC: 0.89029 cumulative IPC: 1.18347 (Simulation time: 0 hr 1 min 42 sec) 
Heartbeat CPU  0 instructions:   70000001 cycles:   38350149 heartbeat IPC: 1.36040 cumulative IPC: 1.19121 (Simulation time: 0 hr 1 min 44 sec) 
Heartbeat CPU  0 instructions:   71000001 cycles:   38915922 heartbeat IPC: 1.76749 cumulative IPC: 1.21000 (Simulation time: 0 hr 1 min 45 sec) 
Heartbeat CPU  0 instructions:   72000000 cycles:   39695787 heartbeat IPC: 1.28227 cumulative IPC: 1.21311 (Simulation time: 0 hr 1 min 47 sec) 
Heartbeat CPU  0 instructions:   73000000 cycles:   40605403 heartbeat IPC: 1.09936 cumulative IPC: 1.20767 (Simulation time: 0 hr 1 min 48 sec) 
Heartbeat CPU  0 instructions:   74000002 cycles:   41514249 heartbeat IPC: 1.10030 cumulative IPC: 1.20278 (Simulation time: 0 hr 1 min 50 sec) 
Heartbeat CPU  0 instructions:   75000001 cycles:   42653481 heartbeat IPC: 0.87778 cumulative IPC: 1.18523 (Simulation time: 0 hr 1 min 52 sec) 
Heartbeat CPU  0 instructions:   76000000 cycles:   43432203 heartbeat IPC: 1.28415 cumulative IPC: 1.18875 (Simulation time: 0 hr 1 min 53 sec) 
Heartbeat CPU  0 instructions:   77000001 cycles:   43996287 heartbeat IPC: 1.77279 cumulative IPC: 1.20344 (Simulation time: 0 hr 1 min 55 sec) 
Heartbeat CPU  0 instructions:   78000002 cycles:   44752483 heartbeat IPC: 1.32241 cumulative IPC: 1.20732 (Simulation time: 0 hr 1 min 56 sec) 
Heartbeat CPU  0 instructions:   79000000 cycles:   45638451 heartbeat IPC: 1.12871 cumulative IPC: 1.20442 (Simulation time: 0 hr 1 min 58 sec) 
Heartbeat CPU  0 instructions:   80000000 cycles:   46542929 heartbeat IPC: 1.10561 cumulative IPC: 1.20085 (Simulation time: 0 hr 1 min 59 sec) 
Heartbeat CPU  0 instructions:   81000000 cycles:   47449916 heartbeat IPC: 1.10255 cumulative IPC: 1.19740 (Simulation time: 0 hr 2 min 1 sec) 
Heartbeat CPU  0 instructions:   82000001 cycles:   48558573 heartbeat IPC: 0.90199 cumulative IPC: 1.18527 (Simulation time: 0 hr 2 min 3 sec) 
Heartbeat CPU  0 instructions:   83000001 cycles:   49150865 heartbeat IPC: 1.68836 cumulative IPC: 1.19607 (Simulation time: 0 hr 2 min 4 sec) 
Heartbeat CPU  0 instructions:   84000000 cycles:   49722608 heartbeat IPC: 1.74904 cumulative IPC: 1.20730 (Simulation time: 0 hr 2 min 6 sec) 
Heartbeat CPU  0 instructions:   85000003 cycles:   50647321 heartbeat IPC: 1.08142 cumulative IPC: 1.20330 (Simulation time: 0 hr 2 min 7 sec) 
Heartbeat CPU  0 instructions:   86000001 cycles:   51548573 heartbeat IPC: 1.10957 cumulative IPC: 1.20048 (Simulation time: 0 hr 2 min 9 sec) 
Heartbeat CPU  0 instructions:   87000003 cycles:   52445968 heartbeat IPC: 1.11434 cumulative IPC: 1.19798 (Simulation time: 0 hr 2 min 10 sec) 
Heartbeat CPU  0 instructions:   88000000 cycles:   53571778 heartbeat IPC: 0.88825 cumulative IPC: 1.18708 (Simulation time: 0 hr 2 min 12 sec) 
Heartbeat CPU  0 instructions:   89000002 cycles:   54295314 heartbeat IPC: 1.38210 cumulative IPC: 1.19139 (Simulation time: 0 hr 2 min 13 sec) 
Heartbeat CPU  0 instructions:   90000003 cycles:   54860997 heartbeat IPC: 1.76778 cumulative IPC: 1.20118 (Simulation time: 0 hr 2 min 15 sec) 
Heartbeat CPU  0 instructions:   91000002 cycles:   55674327 heartbeat IPC: 1.22951 cumulative IPC: 1.20186 (Simulation time: 0 hr 2 min 17 sec) 
Heartbeat CPU  0 instructions:   92000000 cycles:   56574377 heartbeat IPC: 1.11105 cumulative IPC: 1.19953 (Simulation time: 0 hr 2 min 18 sec) 
Heartbeat CPU  0 instructions:   93000002 cycles:   57487360 heartbeat IPC: 1.09531 cumulative IPC: 1.19688 (Simulation time: 0 hr 2 min 20 sec) 
Heartbeat CPU  0 instructions:   94000001 cycles:   58591200 heartbeat IPC: 0.90593 cumulative IPC: 1.18820 (Simulation time: 0 hr 2 min 21 sec) 
Heartbeat CPU  0 instructions:   95000001 cycles:   59208566 heartbeat IPC: 1.61978 cumulative IPC: 1.19528 (Simulation time: 0 hr 2 min 23 sec) 
Heartbeat CPU  0 instructions:   96000000 cycles:   59773497 heartbeat IPC: 1.77013 cumulative IPC: 1.20378 (Simulation time: 0 hr 2 min 24 sec) 
Heartbeat CPU  0 instructions:   97000001 cycles:   60682181 heartbeat IPC: 1.10049 cumulative IPC: 1.20138 (Simulation time: 0 hr 2 min 26 sec) 
Heartbeat CPU  0 instructions:   98000002 cycles:   61589558 heartbeat IPC: 1.10208 cumulative IPC: 1.19913 (Simulation time: 0 hr 2 min 28 sec) 
Heartbeat CPU  0 instructions:   99000003 cycles:   62686029 heartbeat IPC: 0.91202 cumulative IPC: 1.19148 (Simulation time: 0 hr 2 min 29 sec) 
Heartbeat CPU  0 instructions:  100000000 cycles:   63819816 heartbeat IPC: 0.88200 cumulative IPC: 1.18317 (Simulation time: 0 hr 2 min 31 sec) 
Heartbeat CPU  0 instructions:  101000001 cycles:   64629557 heartbeat IPC: 1.23496 cumulative IPC: 1.18415 (Simulation time: 0 hr 2 min 32 sec) 
Heartbeat CPU  0 instructions:  102000002 cycles:   65229679 heartbeat IPC: 1.66633 cumulative IPC: 1.19077 (Simulation time: 0 hr 2 min 34 sec) 
Heartbeat CPU  0 instructions:  103000000 cycles:   65955251 heartbeat IPC: 1.37822 cumulative IPC: 1.19384 (Simulation time: 0 hr 2 min 35 sec) 
Heartbeat CPU  0 instructions:  104000000 cycles:   66891720 heartbeat IPC: 1.06784 cumulative IPC: 1.19123 (Simulation time: 0 hr 2 min 37 sec) 
Heartbeat CPU  0 instructions:  105000000 cycles:   67842147 heartbeat IPC: 1.05216 cumulative IPC: 1.18838 (Simulation time: 0 hr 2 min 38 sec) 
Heartbeat CPU  0 instructions:  106000003 cycles:   68494931 heartbeat IPC: 1.53190 cumulative IPC: 1.19315 (Simulation time: 0 hr 2 min 40 sec) 
Heartbeat CPU  0 instructions:  107000000 cycles:   69052595 heartbeat IPC: 1.79319 cumulative IPC: 1.20020 (Simulation time: 0 hr 2 min 42 sec) 
Heartbeat CPU  0 instructions:  108000000 cycles:   69928626 heartbeat IPC: 1.14151 cumulative IPC: 1.19914 (Simulation time: 0 hr 2 min 43 sec) 
Heartbeat CPU  0 instructions:  109000000 cycles:   70883378 heartbeat IPC: 1.04739 cumulative IPC: 1.19620 (Simulation time: 0 hr 2 min 45 sec) 
Heartbeat CPU  0 instructions:  110000001 cycles:   71698276 heartbeat IPC: 1.22715 cumulative IPC: 1.19670 (Simulation time: 0 hr 2 min 46 sec) 
Heartbeat CPU  0 instructions:  111000001 cycles:   72255143 heartbeat IPC: 1.79576 cumulative IPC: 1.20328 (Simulation time: 0 hr 2 min 48 sec) 
Heartbeat CPU  0 instructions:  112000000 cycles:   72963152 heartbeat IPC: 1.41241 cumulative IPC: 1.20616 (Simulation time: 0 hr 2 min 49 sec) 
Heartbeat CPU  0 instructions:  113000003 cycles:   73888376 heartbeat IPC: 1.08082 cumulative IPC: 1.20395 (Simulation time: 0 hr 2 min 51 sec) 
Heartbeat CPU  0 instructions:  114000001 cycles:   74832021 heartbeat IPC: 1.05972 cumulative IPC: 1.20139 (Simulation time: 0 hr 2 min 53 sec) 
Heartbeat CPU  0 instructions:  115000002 cycles:   75588850 heartbeat IPC: 1.32130 cumulative IPC: 1.20307 (Simulation time: 0 hr 2 min 54 sec) 
Heartbeat CPU  0 instructions:  116000000 cycles:   76147168 heartbeat IPC: 1.79109 cumulative IPC: 1.20909 (Simulation time: 0 hr 2 min 56 sec) 
Heartbeat CPU  0 instructions:  117000000 cycles:   77012246 heartbeat IPC: 1.15597 cumulative IPC: 1.20826 (Simulation time: 0 hr 2 min 57 sec) 
Heartbeat CPU  0 instructions:  118000003 cycles:   77888356 heartbeat IPC: 1.14141 cumulative IPC: 1.20722 (Simulation time: 0 hr 2 min 59 sec) 
Heartbeat CPU  0 instructions:  119000002 cycles:   78792655 heartbeat IPC: 1.10583 cumulative IPC: 1.20562 (Simulation time: 0 hr 3 min 0 sec) 
Heartbeat CPU  0 instructions:  120000000 cycles:   79869110 heartbeat IPC: 0.92897 cumulative IPC: 1.20051 (Simulation time: 0 hr 3 min 2 sec) 
Heartbeat CPU  0 instructions:  121000000 cycles:   80690269 heartbeat IPC: 1.21779 cumulative IPC: 1.20075 (Simulation time: 0 hr 3 min 3 sec) 
Heartbeat CPU  0 instructions:  122000001 cycles:   81250969 heartbeat IPC: 1.78349 cumulative IPC: 1.20622 (Simulation time: 0 hr 3 min 5 sec) 
Heartbeat CPU  0 instructions:  123000001 cycles:   81956931 heartbeat IPC: 1.41651 cumulative IPC: 1.20868 (Simulation time: 0 hr 3 min 7 sec) 
Heartbeat CPU  0 instructions:  124000000 cycles:   82865322 heartbeat IPC: 1.10085 cumulative IPC: 1.20708 (Simulation time: 0 hr 3 min 8 sec) 
Heartbeat CPU  0 instructions:  125000001 cycles:   83759693 heartbeat IPC: 1.11811 cumulative IPC: 1.20580 (Simulation time: 0 hr 3 min 10 sec) 
Heartbeat CPU  0 instructions:  126000003 cycles:   84686436 heartbeat IPC: 1.07905 cumulative IPC: 1.20394 (Simulation time: 0 hr 3 min 11 sec) 
Heartbeat CPU  0 instructions:  127000000 cycles:   85700775 heartbeat IPC: 0.98586 cumulative IPC: 1.20049 (Simulation time: 0 hr 3 min 13 sec) 
Heartbeat CPU  0 instructions:  128000000 cycles:   86279537 heartbeat IPC: 1.72783 cumulative IPC: 1.20521 (Simulation time: 0 hr 3 min 14 sec) 
Heartbeat CPU  0 instructions:  129000000 cycles:   86885140 heartbeat IPC: 1.65125 cumulative IPC: 1.20935 (Simulation time: 0 hr 3 min 16 sec) 
Heartbeat CPU  0 instructions:  130000000 cycles:   87820945 heartbeat IPC: 1.06860 cumulative IPC: 1.20736 (Simulation time: 0 hr 3 min 18 sec) 
Heartbeat CPU  0 instructions:  131000002 cycles:   88731699 heartbeat IPC: 1.09799 cumulative IPC: 1.20587 (Simulation time: 0 hr 3 min 19 sec) 
Heartbeat CPU  0 instructions:  132000000 cycles:   89770190 heartbeat IPC: 0.96293 cumulative IPC: 1.20218 (Simulation time: 0 hr 3 min 21 sec) 
Heartbeat CPU  0 instructions:  133000000 cycles:   90520207 heartbeat IPC: 1.33330 cumulative IPC: 1.20360 (Simulation time: 0 hr 3 min 23 sec) 
Heartbeat CPU  0 instructions:  134000002 cycles:   91083849 heartbeat IPC: 1.77418 cumulative IPC: 1.20823 (Simulation time: 0 hr 3 min 24 sec) 
Heartbeat CPU  0 instructions:  135000001 cycles:   91862230 heartbeat IPC: 1.28472 cumulative IPC: 1.20907 (Simulation time: 0 hr 3 min 26 sec) 
Heartbeat CPU  0 instructions:  136000000 cycles:   92789230 heartbeat IPC: 1.07875 cumulative IPC: 1.20738 (Simulation time: 0 hr 3 min 27 sec) 
Heartbeat CPU  0 instructions:  137000002 cycles:   93820042 heartbeat IPC: 0.97011 cumulative IPC: 1.20399 (Simulation time: 0 hr 3 min 29 sec) 
Heartbeat CPU  0 instructions:  138000002 cycles:   94526415 heartbeat IPC: 1.41568 cumulative IPC: 1.20604 (Simulation time: 0 hr 3 min 31 sec) 
Heartbeat CPU  0 instructions:  139000002 cycles:   95089219 heartbeat IPC: 1.77682 cumulative IPC: 1.21041 (Simulation time: 0 hr 3 min 32 sec) 
Heartbeat CPU  0 instructions:  140000000 cycles:   95905175 heartbeat IPC: 1.22555 cumulative IPC: 1.21058 (Simulation time: 0 hr 3 min 34 sec) 
Heartbeat CPU  0 instructions:  141000000 cycles:   96825659 heartbeat IPC: 1.08639 cumulative IPC: 1.20906 (Simulation time: 0 hr 3 min 36 sec) 
Heartbeat CPU  0 instructions:  142000001 cycles:   97830192 heartbeat IPC: 0.99549 cumulative IPC: 1.20625 (Simulation time: 0 hr 3 min 37 sec) 
Heartbeat CPU  0 instructions:  143000003 cycles:   98463218 heartbeat IPC: 1.57972 cumulative IPC: 1.20932 (Simulation time: 0 hr 3 min 39 sec) 
Heartbeat CPU  0 instructions:  144000000 cycles:   99023227 heartbeat IPC: 1.78568 cumulative IPC: 1.21349 (Simulation time: 0 hr 3 min 40 sec) 
Heartbeat CPU  0 instructions:  145000002 cycles:   99919876 heartbeat IPC: 1.11527 cumulative IPC: 1.21236 (Simulation time: 0 hr 3 min 42 sec) 
Heartbeat CPU  0 instructions:  146000002 cycles:  100875838 heartbeat IPC: 1.04607 cumulative IPC: 1.21036 (Simulation time: 0 hr 3 min 44 sec) 
Heartbeat CPU  0 instructions:  147000002 cycles:  101796394 heartbeat IPC: 1.08630 cumulative IPC: 1.20894 (Simulation time: 0 hr 3 min 45 sec) 
Heartbeat CPU  0 instructions:  148000000 cycles:  102357007 heartbeat IPC: 1.78376 cumulative IPC: 1.21292 (Simulation time: 0 hr 3 min 47 sec) 
Heartbeat CPU  0 instructions:  149000003 cycles:  103013876 heartbeat IPC: 1.52238 cumulative IPC: 1.21542 (Simulation time: 0 hr 3 min 48 sec) 
Heartbeat CPU  0 instructions:  150000003 cycles:  103942718 heartbeat IPC: 1.07661 cumulative IPC: 1.21385 (Simulation time: 0 hr 3 min 50 sec) 
Finished CPU 0 instructions: 100000000 cycles: 82382182 cumulative IPC: 1.21385 (Simulation time: 0 hr 3 min 50 sec) 

ChampSim completed all CPUs

[ROI Statistics]
Core_0_instructions 100000000
Core_0_cycles 82382182
Core_0_IPC 1.21385

Core_0_branch_prediction_accuracy 97.44268
Core_0_branch_MPKI 2.23984
Core_0_average_ROB_occupancy_at_mispredict 141.90018

Core_0_L1D_total_access 48133552
Core_0_L1D_total_hit 46243666
Core_0_L1D_total_miss 1889886
Core_0_L1D_loads 14800969
Core_0_L1D_load_hit 14408180
Core_0_L1D_load_miss 392789
Core_0_L1D_RFOs 1450633
Core_0_L1D_RFO_hit 1360510
Core_0_L1D_RFO_miss 90123
Core_0_L1D_prefetches 31881950
Core_0_L1D_prefetch_hit 30474976
Core_0_L1D_prefetch_miss 1406974
Core_0_L1D_writebacks 0
Core_0_L1D_writeback_hit 0
Core_0_L1D_writeback_miss 0
Core_0_L1D_prefetch_requested 822711772
Core_0_L1D_prefetch_issued 533400305
Core_0_L1D_prefetch_useful 1517290
Core_0_L1D_prefetch_useless 559507
Core_0_L1D_prefetch_late 30013
Core_0_L1D_average_miss_latency 885904.29573

Core_0_L1I_total_access 23975982
Core_0_L1I_total_hit 23975247
Core_0_L1I_total_miss 735
Core_0_L1I_loads 23975982
Core_0_L1I_load_hit 23975247
Core_0_L1I_load_miss 735
Core_0_L1I_RFOs 0
Core_0_L1I_RFO_hit 0
Core_0_L1I_RFO_miss 0
Core_0_L1I_prefetches 0
Core_0_L1I_prefetch_hit 0
Core_0_L1I_prefetch_miss 0
Core_0_L1I_writebacks 0
Core_0_L1I_writeback_hit 0
Core_0_L1I_writeback_miss 0
Core_0_L1I_prefetch_requested 0
Core_0_L1I_prefetch_issued 0
Core_0_L1I_prefetch_useful 0
Core_0_L1I_prefetch_useless 0
Core_0_L1I_prefetch_late 0
Core_0_L1I_average_miss_latency 117.30476

Core_0_L2C_total_access 12011563
Core_0_L2C_total_hit 10088394
Core_0_L2C_total_miss 1923169
Core_0_L2C_loads 367120
Core_0_L2C_load_hit 274051
Core_0_L2C_load_miss 93069
Core_0_L2C_RFOs 90088
Core_0_L2C_RFO_hit 12949
Core_0_L2C_RFO_miss 77139
Core_0_L2C_prefetches 11432188
Core_0_L2C_prefetch_hit 9679426
Core_0_L2C_prefetch_miss 1752762
Core_0_L2C_writebacks 122167
Core_0_L2C_writeback_hit 121968
Core_0_L2C_writeback_miss 199
Core_0_L2C_prefetch_requested 34690400
Core_0_L2C_prefetch_issued 23174863
Core_0_L2C_prefetch_useful 120940
Core_0_L2C_prefetch_useless 2529335
Core_0_L2C_prefetch_late 635
Core_0_L2C_average_miss_latency 208.69168

Core_0_LLC_total_access 2029943
Core_0_LLC_total_hit 277285
Core_0_LLC_total_miss 1752658
Core_0_LLC_loads 92552
Core_0_LLC_load_hit 22095
Core_0_LLC_load_miss 70457
Core_0_LLC_RFOs 77126
Core_0_LLC_RFO_hit 8193
Core_0_LLC_RFO_miss 68933
Core_0_LLC_prefetches 1753288
Core_0_LLC_prefetch_hit 142767
Core_0_LLC_prefetch_miss 1610521
Core_0_LLC_writebacks 106977
Core_0_LLC_writeback_hit 104230
Core_0_LLC_writeback_miss 2747
Core_0_LLC_prefetch_requested 0
Core_0_LLC_prefetch_issued 0
Core_0_LLC_prefetch_useful 21989
Core_0_LLC_prefetch_useless 2389603
Core_0_LLC_prefetch_late 0
Core_0_LLC_average_miss_latency 193.46784

Core_0_major_page_fault 0
Core_0_minor_page_fault 3145


L1D -512>	(8,5)	(3,44)	(4,35)	(1,99)	(0,58)	(-5,5)	(5,14)	(2,115)	(-106,1)	(-2,2)	(7,3)	(280,1)	(96,1)	(40,1)	(-1,2)	(-4,1)	
L1D -511>	(0,24)	(2,31)	(1,81)	(3,10)	(8,2)	(9,0)	(21,0)	(7,7)	(4,0)	(6,0)	(20,0)	(19,0)	(1,0)	(1,0)	(1,0)	(1,0)	
L1D -510>	(2,124)	(1,35)	(0,8)	(5,1)	(7,2)	(3,11)	(19,1)	(4,0)	(9,0)	(1,0)	(1,0)	(1,0)	(1,0)	(1,0)	(1,0)	(1,0)	
L1D -509>	(0,51)	(1,63)	(33,5)	(19,20)	(2,39)	(5,12)	(4,12)	(20,1)	(24,1)	(96,1)	(7,3)	(26,1)	(28,1)	(3,3)	(1,0)	(1,0)	
L1D -508>	(1,40)	(338,1)	(3,3)	(5,7)	(4,4)	(0,3)	(456,3)	(24,3)	(8,1)	(510,1)	(6,1)	(2,1)	(1,0)	(1,0)	(1,0)	(1,0)	
L1D -507>	(1,94)	(2,76)	(3,36)	(4,2)	(-4,6)	(5,1)	(19,0)	(-3,11)	(0,0)	(1,0)	(1,0)	(1,0)	(1,0)	(1,0)	(1,0)	(1,0)	
L1D -506>	(0,14)	(2,109)	(1,92)	(-5,8)	(3,53)	(6,0)	(-4,9)	(38,0)	(-3,0)	(29,0)	(4,0)	(16,0)	(384,0)	(96,0)	(1,0)	(1,0)	
L1D -505>	(133,0)	(403,0)	(0,11)	(-6,2)	(1,62)	(2,64)	(3,11)	(14,0)	(285,1)	(6,0)	(-5,5)	(8,1)	(-4,4)	(4,1)	(1,0)	(1,0)	
L1D -504>	(25,2)	(8,18)	(1,93)	(0,10)	(306,1)	(223,0)	(2,42)	(3,5)	(14,6)	(16,6)	(256,1)	(96,0)	(384,0)	(255,0)	(205,1)	(48,1)	
L1D -503>	(503,6)	(1,79)	(0,43)	(2,9)	(3,18)	(423,1)	(432,1)	(44,0)	(34,0)	(38,3)	(1,0)	(1,0)	(1,0)	(1,0)	(1,0)	(1,0)	
L1D -502>	(34,5)	(0,19)	(1,41)	(69,1)	(2,34)	(3,19)	(5,4)	(4,5)	(83,1)	(384,3)	(16,8)	(256,1)	(182,1)	(1,0)	(1,0)	(1,0)	
L1D -501>	(5,18)	(0,88)	(1,77)	(270,2)	(184,6)	(2,44)	(3,24)	(4,31)	(501,7)	(431,1)	(326,1)	(162,1)	(1,0)	(1,0)	(1,0)	(1,0)	
L1D -500>	(0,17)	(1,39)	(66,1)	(2,41)	(3,18)	(5,11)	(4,19)	(256,2)	(318,2)	(16,6)	(386,1)	(384,1)	(501,1)	(1,0)	(1,0)	(1,0)	
L1D -499>	(4,52)	(1,58)	(6,11)	(0,39)	(3,21)	(2,32)	(31,1)	(15,1)	(5,2)	(423,1)	(96,1)	(292,1)	(9,2)	(1,0)	(1,0)	(1,0)	
L1D -498>	(316,5)	(0,17)	(1,62)	(133,1)	(114,1)	(2,25)	(3,15)	(203,1)	(4,6)	(343,3)	(12,1)	(338,1)	(230,2)	(256,2)	(384,1)	(319,1)	
L1D -497>	(1,41)	(0,77)	(343,3)	(61,10)	(2,70)	(3,9)	(4,2)	(34,3)	(458,1)	(483,1)	(6,1)	(8,3)	(129,1)	(163,1)	(19,1)	(5,1)	
L1D -496>	(224,4)	(48,31)	(198,9)	(1,74)	(0,25)	(19,5)	(216,8)	(16,2)	(2,21)	(4,2)	(496,1)	(200,5)	(498,1)	(255,1)	(256,2)	(8,10)	
L1D -495>	(217,1)	(0,92)	(1,65)	(2,20)	(21,1)	(3,14)	(328,1)	(48,1)	(175,1)	(297,1)	(96,1)	(1,0)	(1,0)	(1,0)	(1,0)	(1,0)	
L1D -494>	(430,15)	(417,4)	(1,53)	(0,21)	(246,17)	(-4,10)	(42,1)	(234,1)	(2,15)	(-17,16)	(3,7)	(493,1)	(6,1)	(384,2)	(469,1)	(71,1)	
L1D -493>	(3,18)	(1,57)	(0,29)	(69,6)	(-18,32)	(96,2)	(58,11)	(76,5)	(4,16)	(2,19)	(49,1)	(-2,1)	(494,1)	(-17,1)	(93,1)	(197,1)	
L1D -492>	(0,17)	(-19,13)	(1,42)	(468,1)	(-5,1)	(2,15)	(-18,6)	(429,2)	(492,2)	(494,1)	(-2,13)	(3,4)	(4,1)	(498,1)	(384,5)	(447,1)	
L1D -491>	(0,65)	(72,2)	(1,20)	(-19,1)	(4,5)	(188,1)	(281,1)	(317,1)	(-4,4)	(384,1)	(8,2)	(96,1)	(32,1)	(368,1)	(346,1)	(2,1)	
L1D -490>	(111,10)	(5,3)	(489,1)	(385,1)	(0,5)	(-19,11)	(247,1)	(1,8)	(337,1)	(178,1)	(18,2)	(4,16)	(3,8)	(2,20)	(149,1)	(384,2)	
L1D -489>	(1,19)	(0,23)	(5,2)	(-2,12)	(96,2)	(6,11)	(354,2)	(214,12)	(3,4)	(2,24)	(4,10)	(413,14)	(132,1)	(-19,3)	(468,1)	(210,1)	
L1D -488>	(184,2)	(8,12)	(43,12)	(40,9)	(304,1)	(144,8)	(1,8)	(322,1)	(458,1)	(5,2)	(420,3)	(2,4)	(4,4)	(194,1)	(3,3)	(183,3)	
L1D -487>	(0,40)	(-5,3)	(3,12)	(1,32)	(2,20)	(255,1)	(114,1)	(150,1)	(502,1)	(4,1)	(1,0)	(1,0)	(1,0)	(1,0)	(1,0)	(1,0)	
L1D -486>	(298,13)	(1,34)	(0,31)	(502,16)	(423,8)	(278,2)	(150,1)	(346,1)	(279,3)	(178,1)	(2,1)	(16,2)	(384,2)	(500,2)	(256,1)	(319,1)	
L1D -485>	(335,15)	(111,10)	(0,17)	(1,8)	(423,4)	(202,12)	(399,9)	(221,1)	(5,2)	(168,2)	(3,6)	(2,5)	(4,4)	(-5,11)	(65,2)	(197,1)	
L1D -484>	(234,17)	(408,10)	(423,4)	(1,44)	(3,4)	(484,6)	(27,2)	(4,4)	(5,5)	(384,2)	(96,1)	(256,1)	(28,2)	(398,1)	(204,2)	(1,0)	
L1D -483>	(398,5)	(4,2)	(112,1)	(8,8)	(1,1)	(2,7)	(0,4)	(139,1)	(494,1)	(53,1)	(1,0)	(1,0)	(1,0)	(1,0)	(1,0)	(1,0)	
L1D -482>	(318,2)	(28,2)	(43,2)	(1,11)	(-29,8)	(214,1)	(169,1)	(48,1)	(37,1)	(68,1)	(256,2)	(64,9)	(384,1)	(482,1)	(8,2)	(247,2)	
L1D -481>	(36,13)	(2,27)	(1,25)	(0,26)	(11,1)	(52,9)	(290,2)	(403,1)	(469,1)	(330,12)	(3,2)	(12,1)	(286,1)	(4,1)	(176,1)	(35,2)	
L1D -480>	(128,13)	(415,7)	(101,7)	(64,11)	(88,1)	(246,4)	(290,4)	(2,5)	(8,4)	(3,2)	(302,1)	(1,1)	(303,1)	(402,1)	(384,2)	(256,1)	
L1D -479>	(0,98)	(1,45)	(-11,1)	(-10,1)	(4,9)	(2,10)	(-5,2)	(3,3)	(183,1)	(9,2)	(480,1)	(5,1)	(1,0)	(1,0)	(1,0)	(1,0)	
L1D -478>	(196,5)	(170,13)	(232,26)	(191,13)	(2,10)	(9,4)	(143,3)	(1,10)	(0,1)	(293,3)	(118,4)	(64,11)	(17,1)	(310,2)	(4,9)	(276,1)	
L1D -477>	(357,16)	(0,9)	(391,1)	(397,16)	(1,3)	(4,6)	(265,1)	(394,1)	(215,1)	(107,1)	(202,1)	(79,1)	(426,1)	(419,1)	(5,1)	(345,1)	
L1D -476>	(401,5)	(-33,10)	(55,7)	(224,13)	(190,4)	(12,9)	(64,5)	(1,8)	(285,4)	(466,3)	(15,1)	(207,2)	(321,5)	(349,3)	(481,2)	(104,5)	
L1D -475>	(401,11)	(76,2)	(63,2)	(333,1)	(224,1)	(232,4)	(81,5)	(5,1)	(45,8)	(22,3)	(0,2)	(-17,1)	(222,1)	(62,1)	(307,1)	(132,8)	
L1D -474>	(-20,17)	(355,9)	(0,5)	(64,7)	(1,1)	(17,1)	(272,1)	(237,8)	(4,1)	(346,1)	(60,3)	(175,1)	(257,1)	(178,1)	(256,1)	(255,1)	
L1D -473>	(386,10)	(195,21)	(419,26)	(1,12)	(0,21)	(289,7)	(-28,1)	(47,1)	(248,3)	(2,17)	(353,2)	(-25,1)	(-8,1)	(73,2)	(281,2)	(129,1)	
L1D -472>	(284,11)	(2,2)	(32,11)	(170,1)	(1,4)	(231,1)	(239,4)	(452,2)	(357,1)	(27,2)	(222,1)	(384,3)	(64,2)	(-32,3)	(351,1)	(476,1)	
L1D -471>	(252,14)	(66,13)	(0,47)	(156,2)	(168,1)	(303,5)	(477,12)	(334,1)	(404,2)	(69,3)	(2,6)	(310,1)	(1,40)	(409,1)	(159,1)	(264,6)	
L1D -470>	(384,4)	(187,14)	(360,17)	(64,2)	(7,11)	(5,18)	(394,6)	(-2,6)	(173,2)	(-7,5)	(209,1)	(2,5)	(77,1)	(270,1)	(212,1)	(1,2)	
L1D -469>	(383,12)	(222,1)	(0,47)	(1,86)	(158,7)	(493,12)	(3,3)	(-2,7)	(31,8)	(350,12)	(270,2)	(-9,2)	(2,15)	(5,10)	(236,3)	(4,8)	
L1D -468>	(1,15)	(384,4)	(2,12)	(71,2)	(0,5)	(295,1)	(3,20)	(-2,7)	(374,6)	(5,17)	(4,12)	(158,1)	(467,1)	(468,3)	(54,2)	(471,1)	
L1D -467>	(153,23)	(352,2)	(4,85)	(-7,22)	(132,1)	(0,106)	(1,55)	(-10,11)	(467,5)	(2,81)	(93,1)	(468,2)	(16,1)	(3,18)	(5,20)	(129,1)	
L1D -466>	(400,4)	(126,26)	(209,22)	(52,19)	(35,1)	(2,20)	(4,27)	(467,2)	(3,7)	(413,10)	(294,11)	(282,7)	(5,10)	(1,8)	(8,3)	(128,5)	
L1D -465>	(211,13)	(0,33)	(157,3)	(3,8)	(-3,11)	(129,3)	(-7,9)	(1,22)	(309,22)	(266,1)	(265,1)	(166,16)	(2,23)	(-4,5)	(5,2)	(344,2)	
L1D -464>	(455,5)	(407,27)	(188,16)	(64,9)	(1,40)	(8,16)	(-2,7)	(2,5)	(40,8)	(16,3)	(114,6)	(24,5)	(0,1)	(226,1)	(462,1)	(438,1)	
L1D -463>	(237,15)	(-38,13)	(463,11)	(322,1)	(-7,6)	(1,35)	(0,80)	(-4,18)	(3,25)	(-6,6)	(2,4)	(4,8)	(462,4)	(32,56)	(5,4)	(346,5)	
L1D -462>	(231,27)	(32,14)	(152,1)	(1,1)	(223,1)	(89,4)	(442,1)	(0,3)	(461,3)	(226,7)	(14,9)	(464,1)	(17,1)	(463,1)	(64,5)	(5,4)	
L1D -461>	(404,27)	(407,21)	(2,27)	(164,4)	(461,3)	(462,4)	(5,4)	(0,38)	(1,47)	(4,18)	(3,8)	(358,2)	(143,4)	(497,13)	(455,10)	(-6,1)	
L1D -460>	(330,14)	(272,9)	(320,3)	(3,5)	(143,6)	(0,9)	(2,5)	(277,5)	(273,2)	(44,1)	(73,1)	(64,6)	(1,8)	(18,1)	(4,7)	(133,2)	
L1D -459>	(155,8)	(113,1)	(461,1)	(75,1)	(411,4)	(86,13)	(441,5)	(1,17)	(162,1)	(0,11)	(372,2)	(-1,2)	(13,1)	(16,1)	(471,1)	(-2,9)	
L1D -458>	(167,16)	(458,1)	(342,3)	(412,5)	(345,1)	(175,1)	(297,1)	(93,1)	(15,1)	(64,4)	(1,1)	(-53,1)	(2,1)	(-11,6)	(447,4)	(415,1)	
L1D -457>	(421,19)	(478,17)	(143,8)	(364,26)	(1,26)	(0,38)	(238,2)	(208,9)	(3,4)	(411,2)	(-33,1)	(2,47)	(55,5)	(468,1)	(358,1)	(431,1)	
L1D -456>	(183,12)	(236,17)	(48,4)	(233,2)	(432,1)	(-32,2)	(40,2)	(16,13)	(391,12)	(418,1)	(457,2)	(5,1)	(1,9)	(73,1)	(93,1)	(2,9)	
L1D -455>	(453,4)	(457,15)	(1,101)	(0,34)	(331,1)	(295,4)	(-36,1)	(455,1)	(47,1)	(16,1)	(241,4)	(414,2)	(5,1)	(218,1)	(306,1)	(491,1)	
L1D -454>	(421,10)	(450,16)	(365,15)	(67,20)	(5,7)	(233,3)	(2,11)	(1,30)	(0,20)	(248,2)	(73,1)	(455,1)	(315,1)	(241,2)	(128,1)	(4,16)	
L1D -453>	(331,13)	(454,19)	(313,8)	(1,39)	(0,28)	(249,6)	(437,2)	(310,1)	(2,28)	(364,1)	(461,2)	(299,1)	(3,11)	(4,15)	(279,1)	(341,2)	
L1D -452>	(0,11)	(204,10)	(2,6)	(48,7)	(4,6)	(196,4)	(118,6)	(459,7)	(212,13)	(330,2)	(-32,3)	(3,2)	(1,9)	(389,4)	(191,3)	(420,1)	
L1D -451>	(99,7)	(342,8)	(464,6)	(432,4)	(0,38)	(44,2)	(141,1)	(256,1)	(287,1)	(1,1)	(8,1)	(347,1)	(326,1)	(5,1)	(236,3)	(60,1)	
L1D -450>	(384,2)	(-2,4)	(4,6)	(1,2)	(224,4)	(25,8)	(510,5)	(157,11)	(297,17)	(169,1)	(53,1)	(27,1)	(180,1)	(426,5)	(356,1)	(363,2)	
L1D -449>	(122,14)	(276,6)	(207,4)	(420,21)	(-2,3)	(-5,2)	(1,67)	(330,8)	(-7,3)	(275,11)	(270,4)	(263,1)	(433,1)	(125,1)	(0,29)	(430,15)	
L1D -448>	(298,20)	(454,11)	(496,11)	(426,3)	(389,6)	(56,14)	(8,47)	(32,17)	(1,18)	(128,21)	(0,7)	(115,4)	(24,18)	(3,2)	(96,2)	(450,3)	
L1D -447>	(283,6)	(148,1)	(-48,5)	(1,86)	(2,2)	(0,58)	(14,3)	(4,1)	(81,6)	(359,4)	(218,4)	(127,3)	(-5,2)	(64,4)	(341,3)	(151,2)	
L1D -446>	(108,13)	(78,5)	(64,6)	(63,13)	(381,1)	(1,20)	(0,8)	(141,1)	(11,1)	(355,1)	(96,8)	(24,3)	(448,4)	(6,1)	(2,4)	(202,1)	
L1D -445>	(4,3)	(44,5)	(442,11)	(1,41)	(3,2)	(0,34)	(34,4)	(445,20)	(192,1)	(255,13)	(127,11)	(213,8)	(369,4)	(386,1)	(23,1)	(2,28)	
L1D -444>	(231,5)	(444,14)	(384,3)	(221,15)	(1,60)	(2,2)	(333,17)	(0,4)	(443,6)	(96,3)	(24,3)	(4,2)	(6,3)	(407,1)	(-7,1)	(481,1)	
L1D -443>	(66,11)	(423,6)	(203,10)	(266,10)	(0,38)	(5,4)	(443,5)	(7,5)	(1,11)	(274,6)	(138,1)	(257,1)	(47,1)	(16,1)	(3,1)	(253,1)	
L1D -442>	(353,15)	(442,17)	(444,4)	(1,9)	(443,14)	(0,11)	(441,4)	(24,4)	(5,1)	(2,5)	(-34,12)	(463,15)	(271,3)	(3,8)	(260,7)	(4,6)	
L1D -441>	(-52,15)	(224,12)	(93,17)	(319,7)	(1,29)	(0,19)	(5,6)	(2,24)	(129,2)	(165,6)	(44,2)	(311,2)	(242,2)	(346,7)	(413,10)	(441,2)	
L1D -440>	(80,11)	(104,4)	(32,7)	(8,23)	(384,3)	(120,1)	(163,13)	(24,5)	(461,8)	(16,18)	(53,1)	(419,1)	(96,2)	(442,3)	(6,2)	(1,5)	
L1D -439>	(424,17)	(376,18)	(-18,17)	(359,15)	(239,5)	(32,8)	(11,4)	(1,51)	(261,1)	(0,40)	(148,1)	(-58,1)	(182,1)	(-2,1)	(93,7)	(51,20)	
L1D -438>	(192,11)	(238,15)	(227,5)	(1,14)	(173,4)	(122,3)	(284,8)	(480,1)	(370,1)	(353,9)	(0,11)	(24,4)	(8,1)	(96,3)	(-16,1)	(-8,1)	
L1D -437>	(80,13)	(460,17)	(0,30)	(2,4)	(61,1)	(-54,2)	(438,3)	(386,1)	(437,9)	(205,10)	(133,1)	(444,2)	(1,20)	(115,1)	(352,2)	(173,1)	
L1D -436>	(252,4)	(1,22)	(438,4)	(256,3)	(222,1)	(273,5)	(353,5)	(0,3)	(384,7)	(239,3)	(323,4)	(173,3)	(247,2)	(-12,1)	(96,6)	(444,3)	
L1D -435>	(415,9)	(67,13)	(86,4)	(384,19)	(128,11)	(94,27)	(5,4)	(217,4)	(329,6)	(1,2)	(3,2)	(0,51)	(343,1)	(138,1)	(305,3)	(304,6)	
L1D -434>	(305,19)	(124,12)	(274,5)	(252,14)	(399,27)	(27,5)	(108,13)	(359,1)	(10,4)	(352,11)	(324,10)	(356,8)	(262,14)	(401,7)	(64,4)	(0,2)	
L1D -433>	(71,5)	(313,26)	(285,2)	(0,28)	(1,30)	(247,2)	(4,3)	(433,6)	(217,5)	(306,3)	(3,3)	(10,6)	(-14,1)	(2,39)	(333,5)	(246,1)	
L1D -432>	(224,17)	(205,9)	(2,30)	(364,16)	(25,16)	(48,8)	(8,13)	(64,2)	(56,3)	(374,1)	(431,6)	(247,6)	(1,15)	(334,7)	(101,12)	(461,10)	
L1D -431>	(425,21)	(471,17)	(0,32)	(252,3)	(1,44)	(303,2)	(32,5)	(431,14)	(432,6)	(272,1)	(231,19)	(238,8)	(5,1)	(-3,5)	(-1,2)	(438,1)	
L1D -430>	(7,9)	(438,3)	(77,13)	(27,14)	(292,27)	(24,15)	(309,24)	(13,27)	(5,5)	(138,1)	(-2,10)	(49,7)	(461,6)	(1,17)	(383,2)	(32,4)	
L1D -429>	(91,17)	(-8,13)	(43,21)	(4,20)	(314,8)	(0,43)	(1,71)	(5,4)	(-2,13)	(482,8)	(137,9)	(422,10)	(2,8)	(-3,3)	(187,1)	(3,14)	
L1D -428>	(436,4)	(-20,15)	(1,10)	(210,3)	(3,2)	(402,5)	(280,1)	(433,11)	(9,1)	(326,1)	(-26,10)	(419,33)	(202,10)	(409,1)	(461,1)	(11,1)	
L1D -427>	(385,17)	(329,9)	(427,13)	(429,11)	(484,6)	(344,4)	(10,6)	(225,3)	(-3,5)	(3,5)	(399,4)	(332,3)	(208,1)	(432,1)	(0,52)	(430,1)	
L1D -426>	(48,14)	(21,14)	(227,25)	(422,6)	(270,16)	(0,16)	(173,3)	(363,6)	(-1,2)	(55,4)	(143,4)	(283,3)	(384,2)	(221,1)	(388,5)	(6,1)	
L1D -425>	(95,5)	(7,17)	(253,2)	(3,7)	(2,12)	(-5,5)	(390,2)	(1,17)	(338,3)	(394,2)	(345,8)	(0,1)	(-39,12)	(376,2)	(173,1)	(447,1)	
L1D -424>	(-19,13)	(426,3)	(-21,7)	(196,12)	(384,4)	(224,13)	(8,36)	(48,4)	(434,5)	(355,1)	(424,12)	(-18,1)	(423,3)	(253,1)	(173,2)	(1,15)	
L1D -423>	(133,17)	(0,23)	(1,68)	(107,1)	(403,1)	(191,1)	(312,1)	(137,14)	(82,10)	(424,3)	(96,1)	(6,5)	(454,1)	(286,1)	(-7,1)	(423,8)	
L1D -422>	(422,15)	(132,15)	(34,27)	(0,32)	(1,22)	(384,4)	(3,4)	(356,1)	(-2,20)	(418,7)	(193,5)	(6,2)	(11,8)	(35,2)	(119,1)	(282,1)	
L1D -421>	(391,15)	(296,5)	(429,6)	(432,14)	(152,5)	(40,33)	(242,9)	(0,25)	(3,7)	(1,38)	(4,15)	(2,12)	(442,10)	(5,4)	(202,19)	(126,1)	
L1D -420>	(-78,15)	(410,17)	(-2,2)	(241,6)	(394,3)	(3,2)	(268,4)	(108,12)	(422,3)	(384,5)	(11,7)	(96,2)	(2,2)	(0,8)	(21,1)	(24,4)	
L1D -419>	(323,15)	(331,7)	(119,17)	(151,7)	(-2,25)	(14,11)	(0,37)	(440,8)	(328,6)	(1,15)	(415,2)	(286,3)	(96,1)	(420,1)	(387,5)	(292,3)	
L1D -418>	(325,5)	(13,14)	(343,6)	(161,5)	(2,1)	(345,1)	(43,1)	(252,1)	(1,7)	(312,1)	(-1,2)	(-64,1)	(-63,1)	(-16,1)	(-31,1)	(96,1)	
L1D -417>	(-6,11)	(62,15)	(-7,2)	(0,12)	(1,10)	(10,24)	(41,22)	(2,5)	(40,10)	(401,16)	(-22,9)	(3,10)	(218,1)	(-5,8)	(178,8)	(252,1)	
L1D -416>	(97,19)	(453,27)	(110,7)	(9,8)	(64,4)	(-40,3)	(-1,16)	(416,17)	(418,3)	(96,9)	(370,1)	(384,12)	(284,6)	(29,1)	(132,4)	(16,1)	
L1D -415>	(377,4)	(505,16)	(241,15)	(407,13)	(-1,20)	(1,55)	(415,16)	(-7,20)	(171,6)	(318,6)	(439,6)	(9,6)	(-50,1)	(67,1)	(239,1)	(91,4)	
L1D -414>	(330,17)	(422,20)	(409,27)	(367,21)	(0,14)	(150,7)	(413,5)	(1,22)	(-31,2)	(89,3)	(233,7)	(309,12)	(118,1)	(408,1)	(-9,8)	(362,5)	
L1D -413>	(412,11)	(413,9)	(4,22)	(0,41)	(2,28)	(-47,5)	(1,27)	(5,7)	(414,5)	(3,8)	(196,12)	(471,4)	(290,9)	(405,1)	(470,1)	(90,1)	
L1D -412>	(415,6)	(9,22)	(0,5)	(-31,39)	(-2,4)	(1,5)	(2,7)	(3,3)	(272,2)	(414,4)	(245,1)	(39,1)	(150,1)	(-63,6)	(343,2)	(362,2)	
L1D -411>	(247,5)	(112,5)	(0,20)	(169,16)	(5,3)	(157,8)	(230,1)	(381,1)	(-35,9)	(219,8)	(34,14)	(387,1)	(75,2)	(404,1)	(1,5)	(73,2)	
L1D -410>	(3,5)	(297,5)	(154,17)	(256,4)	(165,6)	(401,13)	(0,25)	(285,1)	(440,1)	(-15,8)	(1,8)	(410,5)	(390,1)	(108,1)	(177,11)	(48,4)	
L1D -409>	(260,27)	(214,10)	(428,9)	(60,19)	(2,23)	(423,20)	(102,17)	(0,51)	(-2,8)	(35,1)	(32,7)	(1,49)	(272,16)	(409,65)	(216,68)	(283,17)	
L1D -408>	(217,2)	(285,27)	(227,15)	(287,14)	(360,24)	(415,2)	(-2,3)	(96,5)	(3,10)	(32,4)	(343,2)	(408,14)	(421,1)	(310,2)	(407,3)	(48,8)	
L1D -407>	(102,5)	(106,1)	(26,20)	(240,17)	(373,12)	(167,4)	(-5,11)	(265,2)	(3,6)	(0,15)	(477,1)	(-2,2)	(440,1)	(344,1)	(1,10)	(360,1)	
L1D -406>	(120,18)	(-43,16)	(195,17)	(320,27)	(152,2)	(424,26)	(360,4)	(343,3)	(283,3)	(64,3)	(145,1)	(87,1)	(162,4)	(327,1)	(341,1)	(10,10)	
L1D -405>	(24,10)	(7,15)	(0,71)	(325,8)	(134,13)	(384,10)	(-42,12)	(415,5)	(331,14)	(110,5)	(4,7)	(203,17)	(1,40)	(464,1)	(-31,2)	(407,2)	
L1D -404>	(-48,18)	(0,22)	(78,15)	(96,3)	(372,28)	(187,15)	(144,5)	(272,4)	(1,26)	(88,10)	(128,21)	(238,1)	(86,1)	(404,4)	(95,4)	(162,6)	
L1D -403>	(304,16)	(320,10)	(221,22)	(403,4)	(216,5)	(438,3)	(133,4)	(0,49)	(-4,6)	(89,5)	(196,11)	(-68,1)	(284,15)	(385,2)	(172,6)	(367,13)	
L1D -402>	(159,5)	(0,24)	(402,55)	(398,13)	(53,5)	(-50,14)	(344,7)	(269,1)	(3,1)	(178,1)	(135,1)	(170,7)	(-37,8)	(113,2)	(-1,3)	(-2,16)	
L1D -401>	(132,9)	(401,22)	(109,10)	(198,4)	(48,11)	(4,2)	(424,12)	(2,20)	(1,20)	(0,24)	(387,10)	(-2,6)	(464,5)	(3,3)	(485,1)	(57,1)	
L1D -400>	(96,4)	(83,18)	(364,6)	(402,9)	(8,13)	(2,3)	(1,4)	(372,6)	(384,4)	(-4,4)	(354,1)	(-37,5)	(0,16)	(190,1)	(131,1)	(422,4)	
L1D -399>	(139,1)	(157,2)	(-49,2)	(273,5)	(233,17)	(250,5)	(222,5)	(364,8)	(-2,31)	(1,66)	(307,6)	(427,4)	(0,68)	(-6,17)	(-9,6)	(-5,2)	
L1D -398>	(429,17)	(400,27)	(411,9)	(85,16)	(4,9)	(0,11)	(384,4)	(441,1)	(175,1)	(1,5)	(42,1)	(294,1)	(2,21)	(180,1)	(398,8)	(-10,1)	
L1D -397>	(195,15)	(278,27)	(26,17)	(397,35)	(109,13)	(128,13)	(282,13)	(203,5)	(117,5)	(-3,4)	(1,31)	(0,51)	(468,1)	(2,23)	(3,25)	(-5,31)	
L1D -396>	(123,12)	(396,50)	(18,12)	(-10,7)	(312,5)	(1,4)	(66,7)	(2,8)	(323,2)	(3,3)	(-9,2)	(351,5)	(-36,5)	(272,1)	(0,5)	(223,6)	
L1D -395>	(310,17)	(402,1)	(382,13)	(240,17)	(476,10)	(149,25)	(441,11)	(75,5)	(353,25)	(0,23)	(1,14)	(-3,11)	(3,4)	(188,1)	(468,7)	(-5,7)	
L1D -394>	(191,5)	(0,3)	(4,2)	(-81,9)	(1,27)	(489,2)	(391,1)	(-4,9)	(317,1)	(193,7)	(160,4)	(397,1)	(19,1)	(141,1)	(223,1)	(6,2)	
L1D -393>	(151,7)	(-30,15)	(23,5)	(3,19)	(2,36)	(199,10)	(0,11)	(201,3)	(1,20)	(-56,6)	(96,3)	(212,6)	(79,16)	(35,10)	(24,9)	(291,1)	
L1D -392>	(103,3)	(244,13)	(8,1)	(-12,15)	(360,5)	(366,17)	(339,11)	(82,5)	(-1,25)	(-2,14)	(452,2)	(336,4)	(342,3)	(2,13)	(291,4)	(16,4)	
L1D -391>	(338,9)	(0,10)	(279,23)	(-62,5)	(409,15)	(2,4)	(3,13)	(1,81)	(16,14)	(66,1)	(34,7)	(122,4)	(149,4)	(85,8)	(216,5)	(-2,4)	
L1D -390>	(237,13)	(390,2)	(201,14)	(0,25)	(4,2)	(345,4)	(-2,25)	(1,31)	(281,1)	(-20,1)	(389,1)	(67,1)	(494,12)	(422,2)	(203,8)	(151,1)	
L1D -389>	(186,5)	(158,15)	(168,19)	(450,23)	(-2,39)	(94,4)	(1,53)	(0,16)	(-3,4)	(-5,3)	(-9,8)	(389,12)	(-6,5)	(2,8)	(403,1)	(135,1)	
L1D -388>	(-31,15)	(-43,24)	(257,27)	(-39,15)	(330,3)	(0,12)	(210,7)	(1,16)	(8,15)	(179,11)	(413,23)	(399,10)	(2,2)	(-1,11)	(30,1)	(419,1)	
L1D -387>	(93,21)	(136,13)	(177,13)	(-37,13)	(-5,23)	(256,17)	(48,11)	(-26,17)	(387,27)	(81,14)	(1,6)	(89,1)	(-3,7)	(0,8)	(125,14)	(-12,4)	
L1D -386>	(386,23)	(140,26)	(1,7)	(250,4)	(145,1)	(-8,2)	(-47,2)	(108,4)	(79,1)	(404,1)	(170,1)	(324,1)	(418,4)	(128,14)	(256,28)	(2,5)	
L1D -385>	(-9,4)	(26,12)	(24,12)	(-12,5)	(302,13)	(143,17)	(463,5)	(-5,11)	(1,36)	(0,73)	(-3,8)	(130,1)	(2,55)	(4,5)	(-7,4)	(3,20)	
L1D -384>	(376,14)	(477,20)	(288,12)	(128,27)	(227,5)	(-1,1)	(96,4)	(356,14)	(256,85)	(272,4)	(104,4)	(327,9)	(1,19)	(173,9)	(347,7)	(192,8)	
L1D -383>	(157,5)	(1,72)	(383,32)	(27,6)	(426,20)	(67,13)	(158,13)	(65,7)	(110,7)	(126,4)	(128,13)	(448,3)	(0,13)	(86,1)	(192,37)	(5,7)	
L1D -382>	(131,14)	(-2,6)	(214,14)	(189,13)	(192,13)	(318,5)	(0,19)	(320,7)	(295,4)	(1,15)	(381,15)	(-90,9)	(73,3)	(170,1)	(292,8)	(127,27)	
L1D -381>	(301,11)	(-18,11)	(161,27)	(2,13)	(0,71)	(430,17)	(4,6)	(5,6)	(1,27)	(191,9)	(127,2)	(-37,1)	(-57,1)	(-21,8)	(162,17)	(435,8)	
L1D -380>	(391,3)	(304,27)	(216,15)	(-12,27)	(15,12)	(175,13)	(0,35)	(380,28)	(-90,3)	(303,1)	(-17,5)	(1,4)	(256,3)	(392,3)	(-128,4)	(61,6)	
L1D -379>	(181,13)	(150,21)	(266,2)	(311,13)	(-2,17)	(0,66)	(379,23)	(1,27)	(8,4)	(394,13)	(-111,2)	(-5,3)	(-6,6)	(-30,1)	(202,8)	(128,13)	
L1D -378>	(317,17)	(235,4)	(190,7)	(362,27)	(0,21)	(-2,4)	(97,6)	(364,4)	(1,1)	(234,2)	(377,7)	(153,10)	(-129,2)	(38,4)	(338,10)	(378,13)	
L1D -377>	(57,10)	(330,17)	(460,27)	(454,1)	(42,11)	(73,27)	(180,17)	(1,31)	(-2,6)	(-3,7)	(-5,18)	(0,15)	(410,3)	(332,2)	(274,6)	(2,10)	
L1D -376>	(167,21)	(-28,3)	(0,29)	(395,13)	(143,13)	(376,29)	(132,1)	(-16,3)	(8,13)	(336,5)	(16,12)	(144,10)	(326,9)	(35,6)	(25,9)	(237,6)	
L1D -375>	(172,6)	(135,17)	(5,3)	(-5,6)	(406,2)	(1,16)	(154,9)	(297,1)	(306,9)	(375,9)	(-3,4)	(352,1)	(224,1)	(56,2)	(0,25)	(-107,4)	
L1D -374>	(222,11)	(88,27)	(308,19)	(5,6)	(0,7)	(406,3)	(333,26)	(374,11)	(69,19)	(1,10)	(3,2)	(256,3)	(414,4)	(-20,1)	(459,1)	(-19,1)	
L1D -373>	(33,12)	(404,2)	(4,5)	(292,13)	(-68,17)	(255,9)	(170,1)	(2,2)	(134,1)	(1,11)	(0,12)	(257,1)	(183,1)	(209,1)	(-132,1)	(71,3)	
L1D -372>	(101,15)	(259,12)	(-5,19)	(-80,5)	(-2,7)	(0,20)	(153,3)	(350,17)	(404,2)	(2,4)	(193,6)	(389,13)	(435,13)	(422,5)	(307,1)	(144,6)	
L1D -371>	(154,4)	(119,10)	(392,14)	(346,17)	(371,27)	(47,22)	(364,11)	(403,15)	(363,17)	(157,17)	(372,4)	(0,64)	(-14,1)	(1,7)	(5,1)	(-9,2)	
L1D -370>	(-30,5)	(480,9)	(260,16)	(-2,8)	(104,27)	(467,27)	(54,7)	(273,8)	(1,10)	(256,5)	(3,1)	(402,3)	(-7,10)	(321,4)	(0,8)	(193,6)	
L1D -369>	(285,15)	(363,13)	(272,10)	(214,4)	(195,17)	(221,10)	(429,14)	(47,26)	(-2,13)	(0,37)	(2,10)	(61,12)	(1,39)	(489,6)	(191,1)	(270,1)	
L1D -368>	(172,12)	(-32,16)	(7,5)	(53,21)	(158,11)	(400,4)	(0,19)	(-106,15)	(2,2)	(-20,8)	(299,10)	(-78,6)	(368,8)	(300,2)	(74,1)	(133,6)	
L1D -367>	(248,5)	(166,7)	(83,5)	(3,10)	(1,46)	(-5,4)	(-16,7)	(0,9)	(28,10)	(341,1)	(131,1)	(414,1)	(295,5)	(148,2)	(423,9)	(77,5)	
L1D -366>	(473,17)	(174,17)	(398,3)	(-53,16)	(-7,18)	(393,1)	(390,1)	(0,11)	(318,10)	(1,21)	(34,2)	(363,13)	(92,1)	(80,1)	(-127,3)	(-1,3)	
L1D -365>	(60,19)	(-38,17)	(250,28)	(123,1)	(29,26)	(302,27)	(111,5)	(-58,6)	(-33,10)	(236,2)	(335,26)	(362,17)	(5,5)	(1,33)	(0,47)	(365,3)	
L1D -364>	(323,13)	(71,11)	(141,5)	(318,14)	(327,10)	(-38,4)	(366,2)	(1,12)	(396,2)	(-89,1)	(110,1)	(0,9)	(-127,6)	(342,3)	(24,1)	(8,8)	
L1D -363>	(73,9)	(399,5)	(34,2)	(6,6)	(225,5)	(8,2)	(90,2)	(59,4)	(300,2)	(-127,10)	(264,3)	(109,12)	(218,1)	(249,13)	(215,1)	(157,6)	
L1D -362>	(362,12)	(1,7)	(433,5)	(3,2)	(2,4)	(0,17)	(-5,8)	(296,13)	(-93,5)	(283,13)	(202,5)	(94,15)	(-30,1)	(39,6)	(404,9)	(327,1)	
L1D -361>	(409,13)	(154,14)	(153,12)	(72,7)	(93,14)	(403,11)	(439,7)	(398,9)	(179,1)	(43,8)	(1,15)	(101,11)	(-32,7)	(198,12)	(2,26)	(3,3)	
L1D -360>	(348,18)	(113,15)	(-118,12)	(357,27)	(399,12)	(-14,13)	(2,4)	(117,16)	(0,32)	(150,1)	(94,1)	(276,5)	(-1,4)	(123,3)	(-2,5)	(-17,1)	
L1D -359>	(40,15)	(151,13)	(427,15)	(449,17)	(100,11)	(114,16)	(359,15)	(-2,8)	(0,32)	(1,54)	(-110,1)	(-70,1)	(109,1)	(50,1)	(428,6)	(88,1)	
L1D -358>	(216,11)	(422,17)	(358,27)	(-97,22)	(132,17)	(386,9)	(0,23)	(5,12)	(1,7)	(276,7)	(-116,1)	(360,11)	(-79,9)	(4,6)	(324,21)	(347,2)	
L1D -357>	(58,14)	(-95,13)	(229,21)	(325,17)	(253,13)	(89,16)	(95,13)	(164,5)	(4,20)	(-2,3)	(5,11)	(-3,4)	(0,29)	(1,19)	(2,20)	(32,1)	
L1D -356>	(34,17)	(388,22)	(220,27)	(0,27)	(55,8)	(256,4)	(113,4)	(2,6)	(3,4)	(285,21)	(-38,8)	(14,7)	(-128,3)	(1,3)	(247,1)	(135,2)	
L1D -355>	(93,7)	(0,54)	(117,18)	(-46,17)	(39,13)	(222,10)	(278,4)	(287,8)	(34,10)	(-58,13)	(114,5)	(-1,26)	(-84,1)	(116,1)	(-5,6)	(-3,5)	
L1D -354>	(-43,18)	(270,20)	(170,10)	(303,5)	(-15,24)	(8,27)	(128,16)	(436,15)	(0,12)	(258,4)	(259,3)	(1,30)	(-44,1)	(113,7)	(302,5)	(286,2)	
L1D -353>	(2,2)	(447,5)	(-102,13)	(127,16)	(233,12)	(198,16)	(419,23)	(-77,18)	(18,17)	(-15,1)	(1,11)	(259,1)	(170,2)	(274,1)	(139,7)	(0,9)	
L1D -352>	(176,4)	(140,24)	(81,3)	(-2,6)	(154,10)	(302,6)	(294,9)	(368,1)	(357,5)	(110,22)	(300,7)	(352,31)	(402,12)	(90,21)	(360,2)	(-5,2)	
L1D -351>	(233,8)	(-74,16)	(355,12)	(0,21)	(30,11)	(-25,5)	(1,52)	(-32,2)	(64,5)	(4,3)	(2,6)	(277,1)	(-5,1)	(235,1)	(189,1)	(419,1)	
L1D -350>	(0,38)	(350,17)	(341,14)	(-34,9)	(-32,3)	(364,2)	(402,9)	(64,6)	(204,7)	(4,2)	(2,2)	(158,12)	(352,2)	(-2,8)	(386,1)	(338,1)	
L1D -349>	(2,23)	(-89,17)	(84,13)	(-94,12)	(-12,25)	(51,13)	(-2,24)	(-6,35)	(0,52)	(178,6)	(-57,14)	(1,34)	(-9,14)	(270,5)	(3,2)	(323,1)	
L1D -348>	(355,13)	(-136,18)	(-4,2)	(348,10)	(296,17)	(51,13)	(-1,4)	(374,19)	(318,1)	(263,14)	(52,5)	(299,12)	(395,17)	(66,8)	(250,5)	(-2,3)	
L1D -347>	(32,7)	(195,1)	(-14,13)	(340,14)	(450,8)	(100,6)	(0,59)	(-3,9)	(1,8)	(-2,4)	(-7,5)	(264,1)	(3,6)	(-5,27)	(9,1)	(371,1)	
L1D -346>	(137,5)	(-70,18)	(140,10)	(9,28)	(405,27)	(121,6)	(270,28)	(320,1)	(263,26)	(23,12)	(181,15)	(-1,24)	(287,4)	(0,5)	(110,1)	(323,8)	
L1D -345>	(132,8)	(348,14)	(375,20)	(0,33)	(-15,10)	(-84,5)	(1,14)	(378,25)	(-34,12)	(373,17)	(392,7)	(6,4)	(-3,8)	(-7,9)	(192,1)	(-5,10)	
L1D -344>	(62,9)	(188,15)	(268,7)	(157,27)	(304,1)	(148,23)	(-47,31)	(124,6)	(16,4)	(390,1)	(284,1)	(218,3)	(-135,1)	(29,1)	(348,1)	(350,8)	
L1D -343>	(210,17)	(44,15)	(305,12)	(177,27)	(55,1)	(-47,10)	(-40,10)	(-98,11)	(-11,20)	(360,2)	(376,1)	(0,51)	(258,1)	(1,39)	(137,5)	(72,1)	
L1D -342>	(-2,16)	(256,11)	(0,26)	(187,7)	(287,11)	(242,2)	(38,6)	(277,1)	(-99,9)	(255,1)	(160,1)	(232,1)	(-10,1)	(74,3)	(286,1)	(29,1)	
L1D -341>	(1,4)	(208,5)	(26,14)	(345,13)	(397,17)	(143,6)	(214,5)	(4,4)	(88,17)	(258,10)	(308,1)	(252,2)	(80,6)	(74,7)	(0,29)	(341,3)	
L1D -340>	(387,7)	(272,9)	(-62,11)	(-7,17)	(141,13)	(-91,18)	(-42,17)	(4,11)	(256,2)	(395,5)	(1,4)	(0,33)	(-2,13)	(262,1)	(278,1)	(231,4)	
L1D -339>	(143,5)	(0,21)	(63,12)	(-9,4)	(438,17)	(-2,32)	(-1,11)	(1,10)	(-6,5)	(434,2)	(420,1)	(-5,6)	(-46,1)	(352,1)	(335,1)	(25,12)	
L1D -338>	(204,27)	(192,12)	(367,5)	(368,16)	(3,4)	(207,20)	(58,24)	(234,27)	(158,21)	(41,7)	(-128,12)	(338,15)	(44,17)	(160,6)	(0,1)	(-19,1)	
L1D -337>	(0,29)	(341,17)	(129,13)	(2,5)	(-127,11)	(220,10)	(78,7)	(139,9)	(-5,15)	(3,10)	(1,7)	(154,4)	(-118,2)	(312,1)	(274,1)	(-3,8)	
L1D -336>	(337,17)	(307,13)	(216,15)	(1,7)	(336,12)	(58,11)	(120,1)	(47,4)	(-38,1)	(-27,1)	(19,1)	(110,5)	(277,1)	(-2,2)	(-5,1)	(134,1)	
L1D -335>	(-11,11)	(112,24)	(364,22)	(174,6)	(0,115)	(-7,4)	(335,11)	(169,8)	(1,65)	(173,4)	(-1,8)	(-16,14)	(300,1)	(-3,3)	(255,1)	(-5,7)	
L1D -334>	(461,15)	(-21,16)	(55,17)	(1,22)	(-16,7)	(421,10)	(-15,7)	(338,5)	(29,14)	(163,27)	(-2,19)	(-66,2)	(0,10)	(-1,13)	(211,9)	(361,1)	
L1D -333>	(188,11)	(216,8)	(-17,12)	(-4,13)	(1,13)	(274,5)	(346,17)	(0,4)	(2,11)	(4,5)	(5,3)	(369,6)	(307,3)	(-16,1)	(277,1)	(236,8)	
L1D -332>	(206,11)	(108,17)	(-1,2)	(243,12)	(398,14)	(332,24)	(176,15)	(-12,26)	(57,5)	(14,3)	(9,11)	(328,18)	(113,7)	(422,4)	(67,1)	(429,5)	
L1D -331>	(249,5)	(188,13)	(4,11)	(267,17)	(234,22)	(134,4)	(-70,12)	(170,22)	(306,5)	(369,2)	(1,29)	(0,84)	(3,3)	(185,1)	(119,5)	(-104,1)	
L1D -330>	(330,15)	(336,11)	(256,27)	(-59,27)	(143,28)	(-36,23)	(9,16)	(331,1)	(-128,4)	(373,8)	(0,38)	(161,8)	(-48,27)	(384,2)	(440,30)	(430,11)	
L1D -329>	(25,26)	(173,5)	(301,24)	(268,28)	(127,10)	(-72,5)	(-20,5)	(89,12)	(282,17)	(1,18)	(-2,6)	(124,1)	(2,9)	(-5,2)	(329,5)	(0,40)	
L1D -328>	(89,15)	(268,14)	(403,7)	(183,7)	(-15,1)	(328,16)	(-61,18)	(1,3)	(147,25)	(317,5)	(282,4)	(344,20)	(-4,9)	(-2,16)	(63,12)	(136,5)	
L1D -327>	(261,13)	(193,16)	(202,9)	(128,4)	(-51,26)	(0,42)	(-92,19)	(387,10)	(411,6)	(1,25)	(-78,11)	(139,7)	(372,2)	(-7,2)	(-5,2)	(324,1)	
L1D -326>	(352,15)	(6,20)	(177,5)	(0,38)	(175,5)	(256,8)	(1,4)	(260,1)	(400,1)	(327,15)	(124,7)	(215,14)	(205,1)	(257,3)	(161,10)	(376,11)	
L1D -325>	(224,22)	(325,28)	(333,10)	(5,7)	(202,10)	(243,14)	(298,13)	(2,18)	(-54,17)	(0,44)	(1,14)	(300,9)	(139,12)	(3,9)	(39,3)	(391,1)	
L1D -324>	(367,17)	(330,14)	(361,8)	(94,13)	(2,11)	(324,7)	(234,13)	(98,13)	(197,8)	(279,11)	(180,14)	(193,17)	(0,24)	(1,25)	(256,4)	(319,1)	
L1D -323>	(210,15)	(406,17)	(8,1)	(84,14)	(165,9)	(97,28)	(225,27)	(100,7)	(-73,1)	(323,26)	(324,4)	(5,5)	(0,44)	(299,1)	(1,8)	(-53,2)	
L1D -322>	(101,15)	(164,33)	(288,14)	(11,15)	(196,16)	(1,4)	(-97,13)	(392,9)	(-99,24)	(428,16)	(114,28)	(-2,7)	(322,20)	(-62,18)	(333,1)	(256,3)	
L1D -321>	(259,16)	(0,98)	(-89,14)	(164,31)	(-64,12)	(273,20)	(25,11)	(166,1)	(204,25)	(-86,42)	(1,40)	(-34,7)	(2,30)	(3,9)	(-8,5)	(160,4)	
L1D -320>	(245,18)	(221,13)	(-32,6)	(128,63)	(195,19)	(114,21)	(2,7)	(-57,15)	(-86,23)	(-1,27)	(136,4)	(285,1)	(1,19)	(244,5)	(256,20)	(129,13)	
L1D -319>	(224,17)	(127,16)	(-75,17)	(59,19)	(35,27)	(226,13)	(251,1)	(144,9)	(427,17)	(107,17)	(-18,9)	(128,56)	(92,6)	(1,32)	(-64,16)	(255,4)	
L1D -318>	(324,25)	(1,14)	(238,24)	(110,12)	(-73,6)	(131,16)	(92,5)	(128,74)	(283,5)	(164,22)	(330,17)	(-135,5)	(-5,9)	(318,1)	(-11,7)	(250,11)	
L1D -317>	(202,15)	(315,5)	(45,12)	(381,26)	(296,14)	(-5,11)	(197,1)	(-129,12)	(0,72)	(317,27)	(-3,12)	(210,3)	(2,16)	(5,6)	(-65,4)	(1,27)	
L1D -316>	(1,9)	(281,15)	(0,82)	(196,17)	(-47,10)	(4,6)	(450,17)	(126,3)	(398,26)	(176,13)	(7,21)	(232,4)	(157,1)	(2,22)	(-147,12)	(315,2)	
L1D -315>	(49,26)	(-11,11)	(-48,21)	(67,10)	(5,9)	(202,12)	(88,9)	(365,6)	(-94,10)	(156,5)	(-45,1)	(337,1)	(0,39)	(137,4)	(105,2)	(-18,1)	
L1D -314>	(355,24)	(0,15)	(241,1)	(379,14)	(260,18)	(107,27)	(237,1)	(-89,8)	(191,1)	(391,1)	(434,10)	(44,1)	(367,1)	(190,1)	(13,2)	(-73,1)	
L1D -313>	(403,15)	(261,10)	(272,8)	(167,9)	(269,14)	(2,24)	(443,9)	(309,2)	(270,1)	(0,28)	(172,1)	(-23,1)	(-101,1)	(1,12)	(190,4)	(139,11)	
L1D -312>	(484,15)	(193,6)	(174,9)	(100,11)	(-99,12)	(251,7)	(-26,12)	(113,13)	(-95,17)	(4,9)	(-29,26)	(1,14)	(-2,5)	(0,16)	(2,14)	(366,1)	
L1D -311>	(44,1)	(5,20)	(311,12)	(2,105)	(73,8)	(4,53)	(-28,1)	(3,19)	(0,21)	(1,38)	(284,1)	(376,1)	(65,1)	(418,1)	(-5,1)	(19,4)	
L1D -310>	(-2,14)	(358,8)	(265,17)	(234,17)	(1,22)	(256,5)	(136,13)	(0,31)	(2,91)	(324,17)	(4,15)	(202,15)	(262,5)	(469,1)	(-128,3)	(204,10)	
L1D -309>	(1,19)	(119,10)	(243,16)	(343,13)	(168,12)	(225,7)	(286,15)	(61,18)	(309,26)	(2,2)	(0,80)	(14,6)	(-7,15)	(-81,4)	(352,16)	(8,9)	
L1D -308>	(-56,15)	(-2,3)	(338,27)	(1,3)	(-101,27)	(119,27)	(82,13)	(-64,5)	(208,17)	(308,60)	(235,21)	(75,9)	(205,17)	(4,4)	(33,9)	(234,1)	
L1D -307>	(-6,11)	(172,5)	(43,1)	(-36,5)	(184,17)	(301,16)	(162,12)	(-50,9)	(447,17)	(52,5)	(-30,21)	(353,2)	(291,17)	(16,5)	(-2,21)	(-3,4)	
L1D -306>	(68,2)	(-34,15)	(277,26)	(343,17)	(28,5)	(148,27)	(379,13)	(78,27)	(-4,27)	(256,2)	(132,13)	(-31,2)	(0,7)	(-29,42)	(2,20)	(54,1)	
L1D -305>	(191,3)	(8,14)	(324,11)	(-118,26)	(203,27)	(2,43)	(-95,26)	(87,15)	(305,5)	(3,4)	(-5,12)	(0,22)	(1,19)	(-7,4)	(323,2)	(202,1)	
L1D -304>	(185,27)	(456,17)	(88,4)	(2,8)	(320,14)	(179,5)	(7,27)	(290,9)	(293,5)	(130,5)	(92,5)	(-1,27)	(0,14)	(304,10)	(111,9)	(-93,1)	
L1D -303>	(-102,7)	(183,1)	(256,18)	(114,13)	(233,5)	(-22,26)	(-3,2)	(270,3)	(32,3)	(169,14)	(1,13)	(158,22)	(291,14)	(123,5)	(5,2)	(-5,15)	
L1D -302>	(198,15)	(178,9)	(291,1)	(107,15)	(14,5)	(326,12)	(-56,1)	(287,1)	(-50,9)	(405,1)	(-1,7)	(-61,1)	(307,1)	(143,1)	(-20,2)	(208,2)	
L1D -301>	(143,9)	(393,9)	(2,6)	(421,27)	(164,24)	(73,13)	(119,17)	(108,12)	(-36,10)	(311,1)	(207,1)	(182,8)	(274,4)	(257,1)	(157,11)	(-35,1)	
L1D -300>	(299,6)	(221,13)	(110,18)	(234,9)	(-13,25)	(7,17)	(-2,8)	(-167,17)	(-101,18)	(388,27)	(0,23)	(172,15)	(300,29)	(256,5)	(351,19)	(204,1)	
L1D -299>	(359,13)	(320,20)	(2,1)	(343,9)	(280,15)	(-31,13)	(-57,27)	(-20,27)	(7,4)	(98,16)	(299,42)	(61,17)	(218,11)	(-2,9)	(0,20)	(1,26)	
L1D -298>	(126,3)	(-57,15)	(2,11)	(366,17)	(242,19)	(40,5)	(300,2)	(34,1)	(267,14)	(74,5)	(0,25)	(1,6)	(415,9)	(-1,23)	(-2,20)	(289,4)	
L1D -297>	(31,14)	(-9,21)	(1,19)	(3,1)	(310,6)	(453,5)	(-87,28)	(44,13)	(-3,4)	(54,16)	(0,61)	(2,31)	(176,4)	(299,7)	(5,16)	(-2,29)	
L1D -296>	(11,11)	(133,19)	(132,21)	(-44,27)	(485,27)	(39,5)	(-6,16)	(416,12)	(73,4)	(223,12)	(151,26)	(-1,2)	(2,35)	(0,20)	(1,13)	(384,1)	
L1D -295>	(88,5)	(31,18)	(55,8)	(-127,25)	(208,5)	(1,15)	(158,14)	(-5,16)	(-3,12)	(67,1)	(417,2)	(74,1)	(-2,13)	(-7,12)	(235,1)	(97,1)	
L1D -294>	(386,13)	(-13,7)	(-162,17)	(-106,5)	(32,20)	(243,11)	(295,3)	(304,26)	(0,38)	(-21,9)	(294,3)	(198,2)	(371,1)	(200,2)	(-22,1)	(65,2)	
L1D -293>	(85,27)	(25,5)	(40,7)	(194,5)	(293,13)	(79,1)	(5,4)	(-3,6)	(299,1)	(288,3)	(41,1)	(18,1)	(0,14)	(1,12)	(397,1)	(-5,4)	
L1D -292>	(171,13)	(251,17)	(264,6)	(3,8)	(338,17)	(221,5)	(-34,8)	(61,22)	(194,17)	(230,5)	(-1,8)	(256,2)	(0,18)	(1,50)	(111,1)	(-60,1)	
L1D -291>	(291,31)	(306,17)	(93,11)	(-171,20)	(421,27)	(101,7)	(0,38)	(222,24)	(3,16)	(-59,30)	(321,6)	(209,5)	(-97,16)	(116,28)	(260,12)	(23,1)	
L1D -290>	(273,19)	(221,1)	(5,18)	(-117,17)	(42,17)	(189,5)	(93,21)	(68,17)	(-26,12)	(58,10)	(-2,12)	(-11,6)	(3,45)	(256,2)	(13,6)	(1,4)	
L1D -289>	(301,15)	(131,17)	(381,18)	(41,17)	(2,14)	(-76,17)	(283,27)	(5,5)	(288,22)	(0,46)	(205,1)	(-167,1)	(111,17)	(305,13)	(256,5)	(-112,1)	
L1D -288>	(270,10)	(285,17)	(252,27)	(274,27)	(-48,5)	(31,5)	(-80,7)	(108,24)	(0,32)	(98,15)	(148,10)	(-2,9)	(64,20)	(2,5)	(65,18)	(150,1)	
L1D -287>	(-3,40)	(1,120)	(64,9)	(141,7)	(12,123)	(0,87)	(439,1)	(-154,6)	(84,2)	(287,97)	(14,8)	(175,2)	(200,5)	(-2,4)	(63,4)	(5,11)	
L1D -286>	(286,41)	(12,16)	(203,16)	(322,13)	(77,5)	(-80,5)	(15,21)	(-1,10)	(0,19)	(1,11)	(269,23)	(-63,1)	(271,9)	(-128,2)	(287,47)	(3,7)	
L1D -285>	(-3,1)	(-53,7)	(176,9)	(330,24)	(-27,8)	(18,18)	(21,23)	(61,4)	(77,10)	(52,13)	(0,62)	(1,16)	(-75,5)	(279,11)	(432,11)	(326,17)	
L1D -284>	(-3,4)	(-77,14)	(0,1)	(281,14)	(140,15)	(-92,17)	(3,4)	(2,3)	(116,3)	(83,15)	(-128,3)	(-94,16)	(103,4)	(372,28)	(133,10)	(1,3)	
L1D -283>	(212,8)	(192,11)	(349,19)	(250,28)	(14,8)	(355,1)	(194,9)	(218,9)	(134,12)	(283,7)	(196,15)	(47,17)	(284,15)	(-3,9)	(0,45)	(159,20)	
L1D -282>	(20,15)	(282,22)	(132,6)	(59,14)	(-12,1)	(35,1)	(242,1)	(43,9)	(169,17)	(433,13)	(185,8)	(173,2)	(210,5)	(238,1)	(0,16)	(-94,11)	
L1D -281>	(249,8)	(281,21)	(244,7)	(-46,6)	(-98,15)	(13,13)	(162,15)	(228,6)	(2,27)	(1,13)	(0,46)	(282,9)	(330,5)	(-127,5)	(314,1)	(174,4)	
L1D -280>	(28,17)	(1,10)	(0,23)	(269,14)	(21,17)	(281,5)	(279,8)	(256,5)	(8,20)	(2,6)	(126,2)	(24,1)	(68,13)	(151,1)	(184,4)	(280,17)	
L1D -279>	(270,14)	(298,6)	(128,17)	(9,13)	(-216,17)	(333,27)	(462,17)	(-1,14)	(-104,10)	(136,15)	(5,5)	(3,22)	(-2,3)	(0,9)	(1,29)	(-38,1)	
L1D -278>	(278,27)	(37,27)	(54,7)	(57,11)	(385,23)	(344,7)	(0,4)	(80,9)	(279,9)	(3,3)	(-1,11)	(1,2)	(222,1)	(-184,1)	(247,9)	(-139,1)	
L1D -277>	(145,16)	(34,27)	(31,22)	(1,17)	(273,27)	(292,15)	(2,13)	(222,15)	(-5,5)	(0,23)	(4,2)	(295,3)	(317,4)	(-7,10)	(277,3)	(70,1)	
L1D -276>	(107,15)	(246,9)	(0,13)	(-151,10)	(12,20)	(289,24)	(176,13)	(-86,12)	(31,7)	(158,11)	(232,7)	(-1,11)	(272,6)	(1,5)	(287,6)	(381,1)	
L1D -275>	(223,27)	(372,12)	(396,12)	(207,17)	(67,1)	(9,16)	(-12,37)	(246,12)	(272,10)	(2,27)	(183,26)	(45,16)	(448,8)	(13,23)	(275,32)	(1,25)	
L1D -274>	(289,40)	(298,13)	(28,3)	(-12,25)	(29,17)	(-104,17)	(-65,4)	(278,7)	(-142,27)	(-134,6)	(247,10)	(319,15)	(228,18)	(0,9)	(272,9)	(164,1)	
L1D -273>	(-2,7)	(0,36)	(-99,5)	(-90,12)	(252,10)	(43,16)	(-67,12)	(44,13)	(137,10)	(-97,21)	(138,1)	(46,5)	(276,18)	(-132,8)	(278,17)	(294,4)	
L1D -272>	(0,24)	(-39,6)	(1,19)	(110,15)	(272,18)	(318,5)	(153,13)	(129,36)	(367,22)	(113,6)	(247,8)	(480,22)	(238,1)	(181,23)	(309,15)	(158,2)	
L1D -271>	(271,48)	(1,77)	(321,5)	(240,5)	(-47,14)	(-39,25)	(0,56)	(-79,24)	(-97,17)	(29,25)	(329,26)	(13,14)	(256,3)	(287,20)	(-4,5)	(64,1)	
L1D -270>	(65,4)	(-122,10)	(153,5)	(-115,10)	(406,27)	(492,1)	(101,8)	(40,10)	(277,16)	(270,19)	(11,18)	(3,10)	(269,2)	(-20,4)	(19,12)	(229,10)	
L1D -269>	(0,51)	(252,10)	(403,1)	(435,27)	(271,27)	(50,12)	(318,14)	(179,10)	(-12,14)	(138,15)	(90,14)	(1,36)	(169,26)	(356,15)	(113,17)	(145,13)	
L1D -268>	(238,11)	(271,16)	(352,1)	(425,27)	(330,20)	(215,27)	(420,7)	(268,12)	(348,27)	(0,34)	(59,6)	(182,12)	(227,18)	(166,5)	(394,4)	(1,5)	
L1D -267>	(289,11)	(268,15)	(264,6)	(-90,15)	(-214,13)	(1,2)	(-30,22)	(228,6)	(8,12)	(0,26)	(-4,3)	(267,10)	(197,4)	(5,5)	(199,1)	(-2,6)	
L1D -266>	(266,34)	(267,15)	(-11,14)	(18,17)	(-87,28)	(464,17)	(258,12)	(147,27)	(0,61)	(-93,4)	(-37,5)	(349,15)	(133,17)	(108,4)	(447,1)	(112,3)	
L1D -265>	(272,6)	(265,42)	(266,17)	(235,5)	(254,15)	(-161,21)	(333,1)	(24,1)	(-164,5)	(260,8)	(269,8)	(-16,26)	(74,15)	(-8,3)	(340,5)	(-150,6)	
L1D -264>	(264,17)	(265,17)	(195,16)	(374,13)	(-100,19)	(183,17)	(79,17)	(421,5)	(273,17)	(302,27)	(238,6)	(-82,13)	(260,11)	(76,4)	(124,1)	(-1,35)	
L1D -263>	(-35,12)	(176,10)	(119,9)	(157,5)	(4,38)	(425,11)	(0,30)	(263,5)	(-142,12)	(264,10)	(414,1)	(403,2)	(1,82)	(329,1)	(146,11)	(199,1)	
L1D -262>	(398,20)	(262,21)	(0,15)	(387,17)	(280,5)	(35,20)	(93,17)	(212,3)	(263,8)	(199,2)	(264,5)	(3,7)	(4,6)	(1,17)	(160,9)	(2,1)	
L1D -261>	(1,44)	(0,58)	(2,36)	(261,30)	(9,4)	(-20,11)	(205,5)	(201,17)	(26,3)	(77,9)	(336,8)	(40,8)	(-62,1)	(202,7)	(242,17)	(107,26)	
L1D -260>	(2,41)	(-85,14)	(4,24)	(68,1)	(178,17)	(96,5)	(414,15)	(269,18)	(-32,7)	(1,20)	(229,23)	(159,15)	(-1,26)	(260,20)	(202,25)	(3,20)	
L1D -259>	(3,56)	(254,18)	(2,41)	(-12,4)	(112,30)	(321,8)	(-6,10)	(-10,17)	(-3,3)	(1,26)	(0,7)	(-100,5)	(4,12)	(204,3)	(-2,7)	(-145,1)	
L1D -258>	(-2,14)	(-6,15)	(195,26)	(326,17)	(2,12)	(100,10)	(192,5)	(-1,38)	(24,5)	(1,57)	(232,11)	(246,24)	(122,27)	(156,1)	(280,6)	(124,12)	
L1D -257>	(28,12)	(-36,13)	(431,17)	(199,11)	(275,19)	(63,9)	(74,19)	(-224,12)	(360,13)	(-9,27)	(2,2)	(-6,28)	(-2,34)	(257,13)	(0,59)	(1,99)	
L1D -256>	(0,18)	(1,82)	(-52,5)	(115,5)	(192,5)	(-115,8)	(303,6)	(156,6)	(211,6)	(44,3)	(109,6)	(258,74)	(190,3)	(428,8)	(202,1)	(68,5)	
L1D -255>	(-8,11)	(252,9)	(56,17)	(45,22)	(333,10)	(203,13)	(327,14)	(6,17)	(409,15)	(152,1)	(5,8)	(-3,11)	(-5,29)	(0,48)	(1,117)	(255,39)	
L1D -254>	(135,12)	(329,13)	(54,17)	(234,9)	(0,47)	(422,7)	(64,13)	(-154,10)	(254,33)	(195,9)	(127,6)	(1,32)	(157,14)	(173,1)	(256,88)	(255,56)	
L1D -253>	(-38,8)	(338,14)	(383,17)	(0,98)	(256,26)	(-174,13)	(239,27)	(105,5)	(253,27)	(189,14)	(-1,14)	(257,4)	(-3,8)	(-5,15)	(194,1)	(255,17)	
L1D -252>	(183,20)	(361,1)	(41,17)	(27,20)	(119,27)	(252,13)	(29,15)	(137,24)	(160,30)	(91,4)	(-7,17)	(328,26)	(148,7)	(425,26)	(-2,9)	(0,18)	
L1D -251>	(107,13)	(346,20)	(-2,5)	(-125,12)	(298,4)	(38,7)	(112,17)	(254,14)	(-83,2)	(251,13)	(-16,17)	(-3,26)	(0,44)	(252,9)	(-104,1)	(-141,1)	
L1D -250>	(73,15)	(-185,5)	(250,17)	(369,17)	(0,43)	(131,10)	(45,14)	(310,8)	(1,7)	(197,4)	(422,17)	(-65,24)	(-57,1)	(181,4)	(228,3)	(101,16)	
L1D -249>	(1,20)	(-132,11)	(125,21)	(-104,7)	(334,4)	(193,19)	(294,9)	(127,15)	(272,4)	(84,4)	(133,24)	(159,6)	(143,19)	(5,9)	(-55,1)	(250,8)	
L1D -248>	(4,6)	(164,1)	(108,7)	(36,14)	(0,12)	(49,2)	(333,2)	(114,8)	(-153,7)	(377,8)	(-71,1)	(92,8)	(248,90)	(-2,4)	(40,2)	(220,1)	
L1D -247>	(0,5)	(264,13)	(271,17)	(-45,27)	(247,7)	(-9,3)	(190,15)	(189,1)	(-118,1)	(1,56)	(-98,17)	(203,3)	(-195,17)	(59,1)	(-6,22)	(-2,29)	
L1D -246>	(171,10)	(254,15)	(200,14)	(415,15)	(283,18)	(267,27)	(1,9)	(0,38)	(273,13)	(381,38)	(132,15)	(4,4)	(-104,20)	(33,11)	(109,18)	(246,1)	
L1D -245>	(12,12)	(55,10)	(34,9)	(245,33)	(31,11)	(0,71)	(2,20)	(-5,46)	(-3,10)	(3,13)	(-64,4)	(4,2)	(121,1)	(1,23)	(146,1)	(290,1)	
L1D -244>	(244,25)	(247,17)	(2,24)	(-32,13)	(144,24)	(-41,5)	(422,18)	(143,1)	(9,15)	(0,11)	(166,5)	(-147,5)	(214,5)	(-149,5)	(246,3)	(299,5)	
L1D -243>	(376,8)	(-172,12)	(86,9)	(429,24)	(176,17)	(104,10)	(298,13)	(0,22)	(-232,10)	(195,17)	(233,17)	(-7,23)	(-5,12)	(1,4)	(22,1)	(264,2)	
L1D -242>	(242,22)	(244,17)	(139,10)	(186,10)	(-140,5)	(140,18)	(1,4)	(-117,11)	(176,9)	(334,1)	(42,12)	(397,13)	(336,13)	(-23,5)	(206,12)	(-185,21)	
L1D -241>	(6,36)	(1,33)	(52,5)	(135,11)	(-49,5)	(284,10)	(0,34)	(184,17)	(417,15)	(213,7)	(3,1)	(241,15)	(-107,8)	(-202,5)	(-171,26)	(-52,7)	
L1D -240>	(1,23)	(63,15)	(2,8)	(8,36)	(27,6)	(-42,17)	(-70,27)	(0,10)	(317,14)	(180,8)	(304,5)	(219,5)	(303,4)	(133,1)	(240,36)	(-1,20)	
L1D -239>	(-1,36)	(0,36)	(405,13)	(237,27)	(362,1)	(-226,5)	(-44,9)	(22,7)	(326,4)	(301,5)	(273,9)	(214,13)	(375,14)	(139,5)	(472,8)	(-61,17)	
L1D -238>	(-2,32)	(91,17)	(282,13)	(384,27)	(131,17)	(338,17)	(-86,26)	(39,12)	(5,1)	(-79,13)	(0,7)	(26,8)	(90,26)	(1,20)	(238,35)	(-68,13)	
L1D -237>	(-2,19)	(237,33)	(238,17)	(-105,27)	(124,14)	(274,1)	(165,13)	(-258,12)	(357,21)	(74,13)	(437,27)	(86,24)	(297,26)	(91,14)	(26,10)	(0,33)	
L1D -236>	(330,11)	(94,11)	(158,16)	(28,3)	(245,10)	(355,18)	(1,5)	(255,9)	(390,6)	(-1,8)	(162,1)	(304,2)	(376,1)	(52,1)	(420,10)	(248,22)	
L1D -235>	(476,1)	(3,11)	(0,26)	(243,13)	(-142,17)	(-3,5)	(-1,5)	(330,11)	(218,6)	(358,14)	(314,13)	(53,13)	(158,5)	(-2,6)	(-5,22)	(401,8)	
L1D -234>	(0,25)	(234,43)	(-90,17)	(-73,17)	(104,27)	(34,6)	(451,5)	(96,7)	(150,5)	(-3,9)	(263,26)	(-74,25)	(-118,2)	(45,7)	(-189,1)	(51,4)	
L1D -233>	(233,32)	(328,5)	(-15,13)	(136,38)	(304,19)	(177,11)	(240,1)	(305,6)	(76,5)	(382,2)	(-5,8)	(337,27)	(-57,13)	(-236,19)	(20,26)	(0,27)	
L1D -232>	(434,17)	(470,27)	(-32,21)	(1,7)	(0,11)	(116,17)	(-89,27)	(445,5)	(-95,5)	(3,6)	(378,5)	(211,1)	(-1,23)	(321,7)	(8,14)	(234,6)	
L1D -231>	(-99,14)	(-43,13)	(256,9)	(0,19)	(310,23)	(437,8)	(139,19)	(171,20)	(-7,18)	(363,5)	(81,11)	(-40,9)	(213,6)	(-86,6)	(188,1)	(-32,5)	
L1D -230>	(202,1)	(-91,10)	(151,20)	(353,16)	(406,5)	(0,15)	(146,1)	(4,4)	(180,1)	(16,1)	(359,1)	(220,4)	(-30,1)	(-2,3)	(224,1)	(32,1)	
L1D -229>	(1,13)	(2,13)	(330,25)	(-33,12)	(423,13)	(203,5)	(-83,23)	(211,18)	(46,19)	(193,4)	(3,3)	(264,8)	(-41,17)	(-1,5)	(0,51)	(95,1)	
L1D -228>	(-2,6)	(-79,5)	(9,20)	(-17,14)	(148,10)	(-38,13)	(43,1)	(252,1)	(-20,27)	(138,19)	(352,7)	(-197,4)	(23,1)	(228,19)	(-57,1)	(-1,13)	
L1D -227>	(-2,14)	(0,37)	(143,8)	(99,15)	(78,17)	(269,13)	(227,29)	(-6,23)	(-110,1)	(337,17)	(-250,13)	(-4,14)	(-194,15)	(93,11)	(308,18)	(398,5)	
L1D -226>	(225,18)	(195,16)	(107,12)	(268,15)	(135,36)	(-107,13)	(-24,1)	(269,19)	(-30,16)	(210,17)	(-3,12)	(79,23)	(0,23)	(-12,8)	(159,2)	(403,4)	
L1D -225>	(5,5)	(0,38)	(1,22)	(-217,9)	(165,9)	(11,9)	(256,13)	(115,20)	(132,14)	(86,16)	(-5,7)	(3,5)	(99,11)	(103,1)	(-197,12)	(221,17)	
L1D -224>	(192,5)	(-86,9)	(172,16)	(96,13)	(-14,17)	(297,10)	(214,11)	(16,73)	(0,31)	(-58,12)	(-145,8)	(64,26)	(440,8)	(-34,12)	(8,13)	(4,1)	
L1D -223>	(1,17)	(374,16)	(82,27)	(18,5)	(64,33)	(72,11)	(287,17)	(428,26)	(303,17)	(386,25)	(-128,23)	(-70,7)	(120,18)	(-4,1)	(0,68)	(215,5)	
L1D -222>	(215,18)	(-77,16)	(222,17)	(-20,20)	(-205,26)	(-153,12)	(39,7)	(-96,5)	(40,10)	(10,10)	(400,6)	(1,7)	(245,6)	(0,5)	(360,1)	(-61,1)	
L1D -221>	(-2,34)	(0,37)	(-4,31)	(-116,10)	(-148,14)	(-134,22)	(75,13)	(406,5)	(204,5)	(-97,17)	(-60,13)	(-28,17)	(193,1)	(129,17)	(434,4)	(106,17)	
L1D -220>	(-2,51)	(-101,1)	(121,11)	(-108,8)	(-97,11)	(-49,5)	(-11,4)	(46,5)	(-60,25)	(230,15)	(-31,13)	(308,26)	(-164,17)	(41,17)	(37,13)	(1,13)	
L1D -219>	(6,2)	(254,10)	(-108,3)	(492,15)	(163,5)	(133,18)	(-209,17)	(155,2)	(368,1)	(-123,1)	(125,12)	(0,18)	(1,5)	(315,7)	(248,14)	(359,16)	
L1D -218>	(43,2)	(409,1)	(-6,1)	(295,3)	(-29,2)	(53,13)	(243,1)	(26,3)	(33,1)	(72,3)	(120,5)	(-243,2)	(218,10)	(484,3)	(-2,97)	(238,2)	
L1D -217>	(-2,123)	(0,20)	(229,15)	(10,34)	(393,10)	(-10,9)	(2,1)	(44,24)	(217,22)	(26,16)	(24,10)	(339,6)	(-169,11)	(-59,5)	(-49,17)	(14,5)	
L1D -216>	(134,5)	(-19,7)	(26,16)	(320,12)	(96,12)	(43,4)	(173,10)	(-53,22)	(-15,13)	(1,5)	(214,26)	(92,1)	(-38,12)	(104,14)	(136,6)	(72,6)	
L1D -215>	(-2,97)	(-3,79)	(-5,44)	(3,21)	(1,47)	(212,44)	(84,13)	(0,92)	(-7,21)	(-109,22)	(26,16)	(173,1)	(134,11)	(215,93)	(240,10)	(-4,43)	
L1D -214>	(2,14)	(13,17)	(161,14)	(0,37)	(256,12)	(25,22)	(277,5)	(345,14)	(14,26)	(18,5)	(26,2)	(114,4)	(-66,1)	(-154,9)	(-174,1)	(144,2)	
L1D -213>	(180,15)	(220,29)	(0,14)	(255,12)	(-5,42)	(-240,5)	(429,15)	(25,1)	(415,6)	(231,5)	(-53,13)	(2,7)	(246,13)	(-15,12)	(-7,28)	(-3,7)	
L1D -212>	(3,2)	(233,11)	(272,5)	(-122,10)	(-50,24)	(5,2)	(173,2)	(295,2)	(40,33)	(72,27)	(106,1)	(92,8)	(277,6)	(-172,27)	(129,9)	(-41,14)	
L1D -211>	(1,4)	(258,14)	(-55,20)	(7,4)	(-229,21)	(-28,21)	(96,4)	(337,20)	(91,17)	(173,15)	(-2,7)	(-39,1)	(273,7)	(140,2)	(150,2)	(13,1)	
L1D -210>	(-31,13)	(16,21)	(171,17)	(-2,46)	(19,5)	(210,26)	(21,8)	(-112,16)	(354,5)	(42,24)	(-60,27)	(-150,16)	(-64,27)	(266,15)	(287,14)	(-58,1)	
L1D -209>	(5,9)	(186,17)	(209,39)	(171,7)	(287,12)	(26,1)	(-69,5)	(-35,6)	(111,5)	(123,26)	(82,17)	(144,13)	(0,55)	(210,19)	(7,30)	(2,16)	
L1D -208>	(-2,54)	(0,20)	(317,34)	(27,8)	(406,17)	(194,13)	(217,16)	(163,27)	(210,8)	(-150,14)	(-181,17)	(230,17)	(208,27)	(175,25)	(329,1)	(131,9)	
L1D -207>	(-3,6)	(-9,13)	(234,1)	(-105,3)	(169,6)	(128,2)	(136,4)	(-85,3)	(198,5)	(226,21)	(95,10)	(-6,37)	(-2,83)	(5,7)	(477,3)	(0,29)	
L1D -206>	(-2,86)	(0,6)	(143,6)	(226,8)	(-121,1)	(1,2)	(-107,8)	(435,8)	(-28,6)	(286,2)	(257,4)	(247,7)	(-74,3)	(206,17)	(-4,2)	(-37,12)	
L1D -205>	(-5,105)	(-3,26)	(-286,5)	(192,6)	(-53,27)	(212,1)	(1,16)	(-45,10)	(0,58)	(3,22)	(193,28)	(273,5)	(290,5)	(291,25)	(33,18)	(90,19)	
L1D -204>	(1,10)	(165,3)	(50,9)	(181,9)	(267,17)	(183,13)	(139,12)	(145,6)	(2,2)	(105,27)	(-141,1)	(-11,26)	(-220,26)	(221,1)	(-104,13)	(204,25)	
L1D -203>	(-4,59)	(-2,68)	(-3,79)	(-5,63)	(-7,18)	(1,11)	(13,1)	(125,12)	(-270,6)	(0,66)	(374,9)	(191,21)	(-8,26)	(196,13)	(205,11)	(-36,13)	
L1D -202>	(-6,8)	(240,3)	(244,13)	(-97,17)	(279,25)	(-115,17)	(340,5)	(0,29)	(274,15)	(-152,8)	(-7,12)	(2,11)	(155,17)	(454,8)	(1,6)	(123,1)	
L1D -201>	(0,19)	(348,15)	(71,8)	(239,1)	(89,26)	(281,11)	(218,11)	(158,11)	(-132,9)	(-76,16)	(-95,14)	(-50,16)	(197,10)	(14,5)	(1,15)	(129,6)	
L1D -200>	(-12,17)	(493,17)	(170,18)	(-117,9)	(77,1)	(1,6)	(237,7)	(-135,10)	(-101,14)	(363,11)	(257,18)	(-4,46)	(-2,94)	(225,5)	(-3,17)	(-70,9)	
L1D -199>	(1,61)	(-147,1)	(21,13)	(-48,15)	(282,27)	(306,1)	(372,17)	(-146,14)	(274,6)	(-242,19)	(-123,17)	(43,5)	(-34,8)	(137,5)	(355,4)	(160,1)	
L1D -198>	(-2,65)	(-1,14)	(5,46)	(66,5)	(365,7)	(359,6)	(102,13)	(6,3)	(305,1)	(-112,11)	(109,28)	(354,13)	(-23,16)	(253,17)	(-107,11)	(0,32)	
L1D -197>	(83,17)	(-2,105)	(1,13)	(-6,46)	(-4,122)	(127,1)	(4,26)	(-9,33)	(-7,3)	(0,47)	(18,3)	(81,9)	(227,8)	(113,9)	(-89,11)	(-98,8)	
L1D -196>	(-143,1)	(-4,17)	(376,15)	(407,5)	(251,16)	(-52,6)	(-14,17)	(66,7)	(122,14)	(-95,12)	(-126,18)	(-25,13)	(-32,13)	(166,17)	(304,5)	(-1,18)	
L1D -195>	(-5,89)	(-3,27)	(0,71)	(191,7)	(310,1)	(3,21)	(385,15)	(30,26)	(434,2)	(196,13)	(460,13)	(119,27)	(347,11)	(306,25)	(-22,13)	(242,8)	
L1D -194>	(112,4)	(219,12)	(91,8)	(194,41)	(28,9)	(153,15)	(-194,5)	(304,5)	(114,16)	(472,1)	(282,13)	(-163,5)	(1,6)	(-51,4)	(267,5)	(0,27)	
L1D -193>	(-3,31)	(-7,35)	(-5,31)	(223,18)	(-125,12)	(-214,27)	(128,7)	(412,13)	(175,11)	(285,18)	(-43,13)	(1,31)	(221,1)	(-115,9)	(0,81)	(193,24)	
L1D -192>	(0,11)	(-9,8)	(128,70)	(320,5)	(-109,6)	(192,76)	(287,1)	(107,5)	(181,9)	(-10,18)	(109,6)	(354,17)	(-3,5)	(-142,12)	(32,74)	(255,9)	
L1D -191>	(1,36)	(-240,5)	(-43,23)	(-64,48)	(185,14)	(-186,27)	(-132,13)	(338,9)	(191,36)	(127,31)	(116,6)	(-17,6)	(109,6)	(128,11)	(378,1)	(-192,9)	
L1D -190>	(51,17)	(1,7)	(192,28)	(-64,53)	(66,1)	(190,36)	(0,41)	(106,17)	(-192,10)	(175,5)	(321,4)	(-2,75)	(-9,4)	(128,36)	(-170,7)	(-55,5)	
L1D -189>	(0,17)	(1,9)	(79,1)	(238,11)	(-183,9)	(4,2)	(225,7)	(-256,12)	(189,39)	(351,12)	(-7,11)	(-36,2)	(56,12)	(201,10)	(-39,2)	(203,5)	
L1D -188>	(-2,65)	(173,1)	(178,15)	(266,17)	(106,3)	(200,6)	(182,14)	(-79,27)	(168,7)	(92,9)	(2,3)	(-22,14)	(33,12)	(-42,9)	(34,17)	(0,12)	
L1D -187>	(-2,99)	(-3,3)	(-200,8)	(292,6)	(-14,4)	(162,9)	(0,17)	(-131,1)	(98,9)	(187,8)	(-6,48)	(-9,37)	(429,3)	(276,4)	(151,19)	(-191,8)	
L1D -186>	(1,2)	(229,10)	(186,31)	(272,7)	(98,5)	(-71,17)	(-218,1)	(-25,2)	(376,27)	(-16,19)	(259,14)	(409,1)	(-205,6)	(284,14)	(-46,13)	(197,5)	
L1D -185>	(-5,123)	(3,36)	(1,6)	(-72,1)	(133,17)	(136,10)	(-128,11)	(430,9)	(-66,14)	(-149,15)	(49,12)	(-3,22)	(25,5)	(-124,5)	(-58,14)	(0,70)	
L1D -184>	(0,42)	(-1,6)	(48,9)	(167,12)	(-25,14)	(-153,5)	(184,27)	(345,4)	(245,8)	(1,27)	(155,15)	(-29,1)	(74,27)	(194,16)	(33,9)	(174,6)	
L1D -183>	(-3,33)	(-5,31)	(-105,13)	(35,7)	(175,1)	(40,10)	(-42,17)	(-52,6)	(148,9)	(68,11)	(-20,10)	(17,27)	(403,13)	(-198,5)	(302,8)	(44,15)	
L1D -182>	(1,3)	(303,3)	(86,6)	(-10,1)	(132,3)	(78,6)	(239,5)	(60,17)	(168,27)	(27,13)	(18,11)	(259,27)	(40,9)	(208,13)	(-15,7)	(182,25)	
L1D -181>	(0,20)	(-262,1)	(338,14)	(162,18)	(3,10)	(175,20)	(109,13)	(-8,18)	(379,5)	(32,5)	(-25,28)	(77,13)	(253,20)	(269,18)	(43,16)	(-48,10)	
L1D -180>	(-2,29)	(297,8)	(69,27)	(46,25)	(106,1)	(294,5)	(211,15)	(-190,11)	(-47,7)	(0,14)	(-24,12)	(132,27)	(-60,11)	(100,17)	(-250,17)	(-226,25)	
L1D -179>	(129,3)	(-270,5)	(-255,2)	(24,14)	(414,9)	(10,27)	(359,3)	(43,5)	(82,27)	(200,16)	(-241,14)	(1,9)	(132,5)	(126,1)	(291,8)	(183,19)	
L1D -178>	(-1,29)	(-2,65)	(276,1)	(200,6)	(108,27)	(-104,1)	(-210,5)	(319,5)	(1,11)	(129,27)	(409,17)	(-29,10)	(25,20)	(222,1)	(413,8)	(-126,14)	
L1D -177>	(-6,18)	(52,42)	(-10,27)	(177,18)	(-36,18)	(82,17)	(-230,5)	(310,5)	(-117,9)	(56,17)	(120,5)	(-2,116)	(-5,17)	(1,15)	(0,15)	(156,1)	
L1D -176>	(-1,7)	(7,16)	(-60,11)	(244,13)	(36,29)	(16,5)	(296,5)	(1,3)	(246,26)	(-55,13)	(0,26)	(117,1)	(96,17)	(165,13)	(178,31)	(409,14)	
L1D -175>	(-5,67)	(3,18)	(228,21)	(-41,11)	(0,30)	(6,52)	(-163,11)	(-263,10)	(97,10)	(5,24)	(309,1)	(379,16)	(-3,39)	(175,40)	(1,70)	(-11,37)	
L1D -174>	(174,21)	(-55,5)	(19,14)	(9,16)	(-45,17)	(0,29)	(1,10)	(94,19)	(64,2)	(418,13)	(52,20)	(259,27)	(112,1)	(-239,7)	(-20,13)	(13,13)	
L1D -173>	(-5,21)	(0,13)	(259,13)	(295,14)	(-3,6)	(27,8)	(-11,17)	(74,5)	(198,6)	(187,12)	(-129,5)	(-233,27)	(-277,1)	(211,27)	(2,10)	(-252,29)	
L1D -172>	(287,5)	(-88,9)	(71,30)	(-218,19)	(407,5)	(172,28)	(147,7)	(107,14)	(411,5)	(42,3)	(-40,17)	(280,15)	(0,1)	(-7,5)	(226,8)	(90,27)	
L1D -171>	(-56,6)	(-67,15)	(335,11)	(80,15)	(-145,14)	(168,1)	(316,17)	(392,20)	(-219,10)	(9,28)	(359,26)	(142,13)	(10,6)	(0,15)	(-12,4)	(-57,4)	
L1D -170>	(-2,53)	(1,29)	(149,11)	(-69,15)	(197,9)	(337,7)	(0,27)	(398,9)	(170,49)	(64,8)	(210,16)	(44,5)	(189,1)	(228,15)	(-55,6)	(-7,36)	
L1D -169>	(-22,28)	(8,19)	(69,3)	(-33,1)	(78,14)	(169,42)	(0,31)	(46,14)	(-160,27)	(306,25)	(297,7)	(254,17)	(250,11)	(312,26)	(123,15)	(122,8)	
L1D -168>	(-2,46)	(8,17)	(32,5)	(172,7)	(207,17)	(-97,9)	(131,1)	(189,5)	(-121,13)	(0,6)	(250,8)	(168,7)	(233,4)	(-34,5)	(-1,24)	(1,3)	
L1D -167>	(111,4)	(-22,7)	(165,9)	(8,1)	(225,8)	(131,8)	(89,13)	(-7,17)	(0,15)	(61,2)	(-2,69)	(-6,51)	(-3,2)	(1,15)	(-9,7)	(-5,6)	
L1D -166>	(199,35)	(-146,14)	(-1,34)	(178,1)	(184,14)	(-219,15)	(463,14)	(-239,13)	(128,13)	(-12,22)	(279,27)	(-183,13)	(-4,28)	(6,7)	(3,9)	(220,23)	
L1D -165>	(3,48)	(-5,109)	(227,28)	(147,10)	(-65,14)	(164,23)	(58,27)	(-3,48)	(187,34)	(-7,15)	(-88,1)	(176,12)	(-197,12)	(90,4)	(-136,13)	(250,11)	
L1D -164>	(-59,14)	(196,1)	(322,19)	(341,10)	(181,4)	(99,27)	(-143,12)	(-224,17)	(193,5)	(-297,27)	(-67,20)	(159,11)	(419,5)	(21,4)	(-138,13)	(92,13)	
L1D -163>	(294,1)	(201,8)	(-200,36)	(350,25)	(193,27)	(17,5)	(-77,5)	(163,29)	(289,28)	(109,17)	(173,10)	(225,21)	(-7,13)	(-5,42)	(200,4)	(-3,14)	
L1D -162>	(-21,44)	(152,12)	(-39,12)	(329,15)	(3,8)	(-295,6)	(120,12)	(-268,5)	(-22,14)	(160,1)	(-54,1)	(19,16)	(-75,17)	(267,1)	(34,5)	(380,24)	
L1D -161>	(1,17)	(376,13)	(-9,15)	(129,1)	(388,23)	(10,9)	(14,9)	(161,17)	(231,5)	(25,11)	(143,12)	(-207,25)	(265,27)	(-179,12)	(2,44)	(159,11)	
L1D -160>	(-2,39)	(-100,54)	(133,9)	(-300,13)	(79,14)	(114,32)	(236,12)	(170,16)	(64,31)	(-133,7)	(128,23)	(-172,27)	(-39,27)	(106,13)	(-68,22)	(48,1)	
L1D -159>	(214,15)	(157,14)	(-53,15)	(88,12)	(64,34)	(63,24)	(-19,15)	(106,17)	(-86,9)	(159,10)	(189,1)	(44,24)	(-5,6)	(1,9)	(204,21)	(137,13)	
L1D -158>	(-22,49)	(-2,95)	(271,1)	(9,15)	(45,13)	(53,9)	(213,6)	(260,27)	(-32,18)	(48,17)	(154,27)	(240,22)	(-179,12)	(201,17)	(159,28)	(142,17)	
L1D -157>	(-2,114)	(0,18)	(242,11)	(-9,22)	(124,6)	(-101,12)	(-5,9)	(1,5)	(-4,3)	(201,6)	(256,1)	(-153,21)	(157,24)	(-57,3)	(269,11)	(-6,78)	
L1D -156>	(97,1)	(-149,4)	(420,5)	(203,15)	(0,51)	(266,14)	(138,5)	(-181,10)	(164,18)	(143,14)	(365,23)	(-4,18)	(156,39)	(206,5)	(-108,6)	(83,11)	
L1D -155>	(73,2)	(-96,1)	(0,18)	(-142,1)	(3,24)	(1,31)	(-295,1)	(4,38)	(-14,1)	(5,32)	(-5,2)	(-86,1)	(189,0)	(2,97)	(252,1)	(405,1)	
L1D -154>	(-48,1)	(46,1)	(0,23)	(3,27)	(125,4)	(81,1)	(-1,2)	(22,1)	(241,1)	(5,40)	(4,60)	(1,35)	(-111,1)	(-223,1)	(16,3)	(2,126)	
L1D -153>	(-5,65)	(0,93)	(113,5)	(97,21)	(5,13)	(1,49)	(153,27)	(63,26)	(139,12)	(-47,13)	(2,2)	(-149,16)	(-224,15)	(51,5)	(-48,26)	(-3,15)	
L1D -152>	(-35,32)	(1,12)	(401,14)	(265,27)	(132,15)	(224,4)	(-26,13)	(-224,10)	(71,5)	(111,9)	(-197,5)	(-121,33)	(209,21)	(312,14)	(150,1)	(415,9)	
L1D -151>	(1,41)	(-37,10)	(291,1)	(-137,6)	(-175,10)	(316,5)	(-223,27)	(-52,28)	(380,26)	(66,27)	(235,14)	(24,5)	(121,15)	(182,24)	(151,71)	(146,14)	
L1D -150>	(1,18)	(-148,6)	(104,15)	(64,18)	(358,14)	(17,1)	(96,24)	(268,8)	(117,13)	(-14,16)	(352,25)	(75,18)	(-1,30)	(8,22)	(-2,112)	(-5,31)	
L1D -149>	(0,117)	(1,28)	(94,15)	(165,5)	(-269,9)	(-40,10)	(-136,14)	(2,36)	(215,18)	(292,27)	(-51,11)	(-261,15)	(-80,5)	(-336,15)	(-233,1)	(63,27)	
L1D -148>	(-5,3)	(-129,13)	(367,3)	(148,43)	(453,5)	(-6,9)	(426,9)	(-60,3)	(118,16)	(305,12)	(100,5)	(-79,23)	(-115,4)	(0,67)	(-2,85)	(377,1)	
L1D -147>	(178,5)	(-9,17)	(-10,6)	(216,7)	(0,6)	(108,9)	(-89,16)	(258,3)	(169,3)	(-49,15)	(-6,36)	(453,3)	(-2,91)	(-5,19)	(-1,1)	(147,1)	
L1D -146>	(-1,30)	(313,13)	(358,5)	(-9,16)	(78,14)	(-205,27)	(0,55)	(-148,14)	(461,5)	(63,24)	(-83,15)	(437,14)	(150,13)	(116,1)	(378,9)	(130,2)	
L1D -145>	(272,24)	(-7,30)	(-3,22)	(-5,77)	(0,41)	(3,22)	(57,5)	(1,22)	(64,8)	(300,9)	(9,16)	(244,8)	(2,67)	(435,1)	(71,14)	(151,2)	
L1D -144>	(33,24)	(23,1)	(0,18)	(-44,12)	(-80,21)	(95,16)	(385,13)	(208,13)	(235,18)	(108,11)	(230,17)	(144,35)	(32,16)	(-225,17)	(-178,16)	(209,19)	
L1D -143>	(-3,28)	(1,47)	(-5,41)	(381,19)	(31,8)	(-14,9)	(207,17)	(-91,1)	(219,13)	(-97,19)	(-257,13)	(69,9)	(-12,12)	(49,8)	(143,25)	(32,29)	
L1D -142>	(142,15)	(1,19)	(200,10)	(-1,17)	(204,1)	(53,12)	(377,15)	(-2,12)	(-151,14)	(134,18)	(-146,8)	(234,27)	(209,13)	(38,5)	(-235,14)	(80,26)	
L1D -141>	(141,25)	(-50,14)	(41,13)	(-13,13)	(149,27)	(-88,18)	(25,27)	(-46,13)	(1,32)	(-56,10)	(2,12)	(0,57)	(88,1)	(4,2)	(-236,2)	(-93,3)	
L1D -140>	(1,15)	(-2,36)	(-1,16)	(-208,17)	(-40,17)	(333,5)	(389,18)	(87,15)	(94,9)	(468,16)	(-64,11)	(309,6)	(114,8)	(292,27)	(-307,1)	(-36,23)	
L1D -139>	(139,1)	(-4,16)	(-253,10)	(169,5)	(92,3)	(-78,14)	(-19,25)	(-145,27)	(108,13)	(-231,17)	(87,25)	(-11,19)	(149,19)	(130,18)	(-13,15)	(-41,22)	
L1D -138>	(-2,47)	(0,2)	(-251,20)	(345,5)	(11,1)	(210,5)	(-32,12)	(-80,18)	(56,13)	(137,34)	(-309,6)	(229,7)	(-79,1)	(-29,9)	(108,17)	(-1,21)	
L1D -137>	(-2,119)	(-3,8)	(-51,8)	(291,7)	(429,14)	(132,18)	(-95,10)	(-21,1)	(174,8)	(297,26)	(-143,19)	(427,27)	(148,5)	(356,7)	(-83,13)	(273,17)	
L1D -136>	(1,101)	(0,90)	(14,15)	(136,27)	(-50,15)	(79,20)	(143,16)	(-82,14)	(-1,20)	(3,64)	(135,11)	(2,33)	(-239,1)	(-137,23)	(108,41)	(-133,14)	
L1D -135>	(-77,45)	(1,44)	(-49,17)	(-3,36)	(-108,10)	(-5,76)	(-225,9)	(4,2)	(237,5)	(72,27)	(123,12)	(25,28)	(2,20)	(57,10)	(135,28)	(257,15)	
L1D -134>	(-1,21)	(132,14)	(107,25)	(218,8)	(134,25)	(-166,11)	(126,1)	(222,15)	(461,22)	(-3,6)	(64,28)	(-125,5)	(-241,8)	(0,57)	(184,27)	(282,9)	
L1D -133>	(-77,42)	(-5,49)	(1,14)	(-3,15)	(133,30)	(162,4)	(0,66)	(289,9)	(59,11)	(-155,1)	(308,17)	(362,8)	(249,14)	(183,14)	(26,16)	(-91,14)	
L1D -132>	(-1,34)	(186,12)	(10,17)	(154,16)	(132,59)	(227,23)	(25,13)	(106,16)	(76,11)	(27,6)	(238,14)	(-25,14)	(193,20)	(171,1)	(-299,17)	(192,19)	
L1D -131>	(1,4)	(-129,15)	(-35,21)	(-101,10)	(330,27)	(150,27)	(-140,15)	(174,13)	(-275,13)	(0,44)	(-159,22)	(-242,17)	(130,18)	(-192,15)	(297,1)	(113,10)	
L1D -130>	(1,22)	(-204,10)	(256,18)	(263,9)	(-144,17)	(236,14)	(327,4)	(-348,7)	(-102,17)	(16,15)	(-1,38)	(-2,67)	(-254,8)	(2,31)	(246,1)	(416,6)	
L1D -129>	(129,67)	(1,61)	(392,13)	(135,15)	(297,9)	(68,7)	(77,1)	(-227,13)	(2,40)	(29,21)	(0,105)	(251,5)	(-137,21)	(119,17)	(-12,31)	(64,34)	
[...]
L1D 492>	(-63,15)	(-1,6)	(-2,7)	(-9,1)	(-268,10)	(-118,2)	(-492,1)	(-486,2)	(-439,8)	(-402,2)	(-190,2)	(-391,2)	(-263,1)	(-7,1)	(-324,1)	(-5,1)	
L1D 493>	(-439,17)	(-291,1)	(0,7)	(-110,10)	(-256,1)	(1,8)	(-392,1)	(-494,3)	(-361,2)	(-411,1)	(-1,1)	(-364,1)	(-250,1)	(-5,1)	(1,0)	(1,0)	
L1D 494>	(-2,4)	(-184,5)	(-60,5)	(-10,7)	(-399,1)	(0,5)	(1,1)	(-498,2)	(-1,3)	(-488,3)	(-5,4)	(-437,1)	(-6,3)	(-168,1)	(1,0)	(1,0)	
L1D 495>	(-310,1)	(-278,9)	(-175,1)	(-88,1)	(-496,1)	(-198,2)	(-68,1)	(-263,2)	(-366,1)	(1,0)	(1,0)	(1,0)	(1,0)	(1,0)	(1,0)	(1,0)	
L1D 496>	(-331,12)	(-5,1)	(-298,4)	(-145,2)	(-496,1)	(-107,1)	(1,0)	(1,0)	(1,0)	(1,0)	(1,0)	(1,0)	(1,0)	(1,0)	(1,0)	(1,0)	
L1D 497>	(-2,5)	(-503,1)	(-5,3)	(-497,13)	(-461,10)	(-6,2)	(-7,2)	(-9,1)	(-42,1)	(-53,1)	(-492,2)	(-474,4)	(-250,1)	(-396,2)	(-357,1)	(-145,1)	
L1D 498>	(-346,8)	(-494,7)	(-26,12)	(-399,1)	(-271,7)	(-155,2)	(-60,2)	(-498,3)	(-163,1)	(-492,1)	(-229,2)	(-25,1)	(-27,2)	(-437,2)	(1,0)	(1,0)	
L1D 499>	(-249,1)	(-3,4)	(-6,1)	(-65,1)	(-508,1)	(-370,1)	(-421,1)	(1,0)	(1,0)	(1,0)	(1,0)	(1,0)	(1,0)	(1,0)	(1,0)	(1,0)	
L1D 500>	(-41,13)	(-2,1)	(-122,1)	(-268,4)	(-508,2)	(-492,4)	(-311,1)	(1,0)	(1,0)	(1,0)	(1,0)	(1,0)	(1,0)	(1,0)	(1,0)	(1,0)	
L1D 501>	(-7,19)	(-1,1)	(-2,2)	(-110,1)	(-498,5)	(-456,4)	(-317,1)	(-504,1)	(-509,1)	(-322,1)	(-406,1)	(1,0)	(1,0)	(1,0)	(1,0)	(1,0)	
L1D 502>	(-42,64)	(-14,15)	(-15,2)	(-187,1)	(-95,1)	(-323,8)	(-205,1)	(-274,2)	(-497,1)	(-486,2)	(-2,1)	(7,1)	(-144,1)	(-110,1)	(1,0)	(1,0)	
L1D 503>	(-18,5)	(-1,3)	(-459,5)	(-498,1)	(-9,1)	(-71,1)	(-6,1)	(-485,2)	(-176,2)	(1,0)	(1,0)	(1,0)	(1,0)	(1,0)	(1,0)	(1,0)	
L1D 504>	(-2,1)	(-1,3)	(-122,1)	(-71,8)	(-135,2)	(-29,1)	(-498,1)	(1,0)	(1,0)	(1,0)	(1,0)	(1,0)	(1,0)	(1,0)	(1,0)	(1,0)	
L1D 505>	(-438,16)	(-505,15)	(-3,2)	(-210,1)	(-102,2)	(-6,1)	(-116,2)	(-220,7)	(1,0)	(1,0)	(1,0)	(1,0)	(1,0)	(1,0)	(1,0)	(1,0)	
L1D 506>	(-412,1)	(-3,6)	(-140,1)	(-420,1)	(-365,1)	(-134,1)	(1,0)	(1,0)	(1,0)	(1,0)	(1,0)	(1,0)	(1,0)	(1,0)	(1,0)	(1,0)	
L1D 507>	(-5,1)	(-2,2)	(-453,1)	(-115,3)	(-144,1)	(-210,2)	(-135,1)	(1,0)	(1,0)	(1,0)	(1,0)	(1,0)	(1,0)	(1,0)	(1,0)	(1,0)	
L1D 508>	(1,1)	(-145,2)	(1,0)	(1,0)	(1,0)	(1,0)	(1,0)	(1,0)	(1,0)	(1,0)	(1,0)	(1,0)	(1,0)	(1,0)	(1,0)	(1,0)	
L1D 509>	(-3,1)	(-352,4)	(1,0)	(1,0)	(1,0)	(1,0)	(1,0)	(1,0)	(1,0)	(1,0)	(1,0)	(1,0)	(1,0)	(1,0)	(1,0)	(1,0)	
L1D 510>	(-129,5)	(-473,1)	(-508,1)	(-140,1)	(-145,1)	(1,0)	(1,0)	(1,0)	(1,0)	(1,0)	(1,0)	(1,0)	(1,0)	(1,0)	(1,0)	(1,0)	
L1D 511>	(-265,1)	(1,0)	(1,0)	(1,0)	(1,0)	(1,0)	(1,0)	(1,0)	(1,0)	(1,0)	(1,0)	(1,0)	(1,0)	(1,0)	(1,0)	(1,0)	

L2C -64>	(1,143)	(-15,1)	(-31,1)	(-2,1)	(6,3)	(3,23)	(7,3)	(5,4)	(2,47)	(4,10)	(17,1)	(-3,5)	(9,1)	(-4,3)	(-1,6)	(-5,2)	
L2C -63>	(20,1)	(1,132)	(7,1)	(5,2)	(6,13)	(3,4)	(4,21)	(32,0)	(25,0)	(2,5)	(13,0)	(0,0)	(9,4)	(23,0)	(57,0)	(1,0)	
L2C -62>	(1,236)	(48,2)	(21,3)	(2,7)	(20,10)	(55,1)	(-1,7)	(3,3)	(50,4)	(32,1)	(51,1)	(6,18)	(49,1)	(15,1)	(5,5)	(4,32)	
L2C -61>	(3,1)	(5,4)	(6,18)	(1,179)	(-1,17)	(42,5)	(4,21)	(35,2)	(2,4)	(-2,54)	(9,3)	(23,1)	(8,1)	(29,1)	(61,1)	(47,1)	
L2C -60>	(1,202)	(53,4)	(5,13)	(-2,5)	(39,4)	(52,3)	(4,25)	(-1,23)	(13,1)	(18,3)	(3,10)	(29,6)	(45,4)	(20,5)	(6,13)	(49,4)	
L2C -59>	(4,26)	(31,4)	(28,7)	(24,5)	(3,12)	(2,12)	(45,12)	(50,7)	(-4,5)	(1,219)	(6,2)	(60,5)	(7,7)	(26,5)	(53,18)	(22,4)	
L2C -58>	(2,32)	(34,7)	(42,8)	(1,225)	(32,9)	(6,31)	(11,1)	(5,13)	(3,12)	(29,2)	(24,16)	(-1,105)	(30,12)	(4,32)	(16,5)	(51,56)	
L2C -57>	(49,15)	(26,6)	(-1,20)	(53,9)	(38,2)	(52,6)	(30,6)	(56,10)	(45,1)	(39,3)	(1,144)	(3,6)	(14,5)	(16,2)	(11,3)	(6,14)	
L2C -56>	(-1,22)	(7,18)	(44,8)	(24,5)	(12,5)	(13,9)	(1,196)	(28,1)	(47,5)	(-6,8)	(20,5)	(60,3)	(43,6)	(4,12)	(26,8)	(22,5)	
L2C -55>	(1,166)	(44,14)	(47,9)	(53,14)	(4,27)	(-1,30)	(32,1)	(41,8)	(17,2)	(28,8)	(31,7)	(16,20)	(25,12)	(50,27)	(8,9)	(11,13)	
L2C -54>	(43,7)	(-1,38)	(6,1)	(1,216)	(53,27)	(37,9)	(49,3)	(38,14)	(34,7)	(10,9)	(2,29)	(4,31)	(29,15)	(24,8)	(39,29)	(26,13)	
L2C -53>	(-1,82)	(12,15)	(1,172)	(2,33)	(-2,15)	(11,14)	(7,18)	(-3,6)	(16,19)	(6,18)	(49,11)	(35,1)	(4,36)	(17,26)	(42,13)	(14,9)	
L2C -52>	(0,14)	(49,15)	(63,7)	(58,1)	(-6,11)	(40,21)	(1,199)	(8,24)	(12,9)	(16,13)	(-1,153)	(41,22)	(39,18)	(54,4)	(5,42)	(51,51)	
L2C -51>	(8,13)	(49,1)	(-1,41)	(47,19)	(45,23)	(4,26)	(2,13)	(21,16)	(3,13)	(15,12)	(10,5)	(52,15)	(1,183)	(61,4)	(25,10)	(53,16)	
L2C -50>	(35,19)	(1,188)	(6,12)	(34,11)	(-1,59)	(-4,12)	(13,1)	(40,14)	(49,13)	(20,8)	(25,19)	(44,4)	(46,4)	(7,14)	(31,12)	(52,12)	
L2C -49>	(45,24)	(-3,8)	(1,169)	(41,8)	(39,4)	(12,7)	(50,27)	(-1,53)	(53,15)	(2,28)	(36,10)	(-5,23)	(42,5)	(24,13)	(52,9)	(20,1)	
L2C -48>	(49,57)	(-1,167)	(1,246)	(32,47)	(16,82)	(48,25)	(23,13)	(-5,1)	(38,28)	(14,24)	(34,20)	(17,34)	(47,28)	(15,14)	(4,16)	(-2,21)	
L2C -47>	(53,21)	(20,41)	(1,191)	(-2,49)	(-8,8)	(44,23)	(47,31)	(39,31)	(10,21)	(4,17)	(2,29)	(37,41)	(-1,113)	(11,38)	(9,43)	(38,1)	
L2C -46>	(47,48)	(-1,117)	(19,31)	(1,227)	(14,20)	(27,32)	(32,55)	(-3,51)	(20,24)	(8,20)	(34,15)	(26,25)	(31,34)	(2,1)	(16,17)	(6,23)	
L2C -45>	(1,226)	(38,17)	(6,42)	(31,34)	(24,29)	(4,42)	(-1,80)	(44,99)	(39,50)	(19,42)	(12,42)	(41,15)	(35,17)	(9,17)	(17,23)	(43,1)	
L2C -44>	(4,1)	(-1,13)	(45,16)	(-9,3)	(43,5)	(16,7)	(3,11)	(1,202)	(7,14)	(-5,8)	(17,6)	(34,10)	(44,5)	(9,8)	(5,8)	(15,7)	
L2C -43>	(-1,134)	(49,7)	(27,15)	(1,187)	(14,5)	(33,17)	(-2,29)	(18,18)	(2,25)	(7,1)	(25,5)	(16,26)	(17,11)	(37,19)	(20,26)	(19,16)	
L2C -42>	(-1,49)	(43,12)	(36,12)	(31,3)	(24,6)	(26,10)	(38,13)	(23,13)	(1,150)	(4,22)	(32,1)	(27,4)	(13,11)	(20,3)	(15,8)	(30,2)	
L2C -41>	(13,21)	(-12,9)	(-1,56)	(52,9)	(51,14)	(27,10)	(32,27)	(20,1)	(1,166)	(-6,15)	(9,8)	(6,17)	(29,19)	(45,17)	(12,34)	(25,19)	
L2C -40>	(-13,1)	(-1,47)	(1,207)	(22,6)	(40,16)	(52,7)	(-3,12)	(36,23)	(32,12)	(26,29)	(17,12)	(29,16)	(24,17)	(21,28)	(30,11)	(27,9)	
L2C -39>	(45,14)	(22,17)	(1,253)	(-10,10)	(15,16)	(13,15)	(-18,1)	(28,5)	(5,16)	(24,17)	(-1,48)	(6,34)	(40,37)	(-12,24)	(11,11)	(47,22)	
L2C -38>	(2,40)	(1,215)	(-3,39)	(-1,60)	(4,19)	(43,1)	(52,14)	(18,20)	(-4,34)	(-8,15)	(48,18)	(12,23)	(35,37)	(30,14)	(3,13)	(22,24)	
L2C -37>	(-1,93)	(14,24)	(9,25)	(1,191)	(5,14)	(44,23)	(22,14)	(30,41)	(38,33)	(29,23)	(-2,42)	(27,23)	(17,30)	(58,1)	(50,7)	(31,10)	
L2C -36>	(5,30)	(11,21)	(1,204)	(19,17)	(2,30)	(41,15)	(-1,72)	(0,9)	(3,44)	(20,20)	(-9,22)	(37,1)	(-3,24)	(32,36)	(48,10)	(-6,13)	
L2C -35>	(14,15)	(28,35)	(-1,80)	(1,186)	(19,22)	(34,50)	(-23,1)	(21,27)	(2,39)	(20,13)	(13,19)	(8,29)	(54,12)	(29,25)	(-8,8)	(3,24)	
L2C -34>	(3,38)	(14,41)	(-14,11)	(24,1)	(11,17)	(-1,80)	(-3,15)	(25,30)	(36,25)	(13,16)	(4,34)	(5,34)	(19,28)	(17,13)	(1,230)	(10,19)	
L2C -33>	(24,23)	(34,108)	(28,29)	(-1,108)	(-4,15)	(-11,26)	(-7,13)	(26,47)	(1,253)	(35,34)	(32,57)	(30,12)	(16,1)	(18,21)	(4,32)	(9,15)	
L2C -32>	(-1,74)	(46,1)	(3,20)	(35,10)	(1,183)	(33,27)	(31,17)	(5,15)	(16,13)	(17,18)	(11,15)	(52,5)	(-7,15)	(4,26)	(24,13)	(47,3)	
L2C -31>	(-1,73)	(11,14)	(1,129)	(2,26)	(4,18)	(3,1)	(-5,15)	(29,8)	(14,19)	(40,13)	(-2,19)	(25,29)	(32,24)	(46,2)	(13,11)	(10,13)	
L2C -30>	(11,18)	(1,137)	(-1,85)	(6,16)	(-4,13)	(7,8)	(29,14)	(-10,4)	(-7,9)	(31,27)	(48,4)	(24,1)	(14,9)	(12,8)	(25,10)	(10,7)	
L2C -29>	(-1,160)	(25,50)	(30,65)	(41,1)	(42,14)	(9,22)	(-2,34)	(55,14)	(18,31)	(1,186)	(8,26)	(6,25)	(-10,27)	(10,35)	(46,16)	(16,19)	
L2C -28>	(-1,158)	(-2,25)	(6,16)	(3,25)	(26,17)	(10,1)	(32,30)	(-19,11)	(36,10)	(-13,15)	(47,9)	(1,213)	(-14,9)	(13,19)	(19,22)	(-23,11)	
L2C -27>	(36,8)	(18,6)	(1,183)	(11,9)	(12,11)	(37,6)	(-8,1)	(29,25)	(24,9)	(28,40)	(-6,8)	(13,6)	(-9,8)	(-1,130)	(45,7)	(16,11)	
L2C -26>	(1,205)	(17,11)	(25,21)	(3,30)	(-1,116)	(34,11)	(37,8)	(4,32)	(18,21)	(39,1)	(-12,9)	(-6,7)	(45,4)	(22,17)	(6,15)	(-8,22)	
L2C -25>	(8,2)	(1,173)	(24,4)	(-1,36)	(27,4)	(6,1)	(-6,1)	(2,6)	(-5,3)	(16,5)	(26,15)	(-3,5)	(-17,3)	(10,3)	(-8,3)	(11,3)	
L2C -24>	(25,25)	(6,12)	(15,10)	(1,214)	(23,7)	(-2,4)	(3,1)	(4,3)	(40,4)	(-1,65)	(9,5)	(35,12)	(19,5)	(36,8)	(33,3)	(8,6)	
L2C -23>	(24,21)	(13,7)	(-2,7)	(4,14)	(2,16)	(11,6)	(6,21)	(19,17)	(-1,90)	(21,13)	(3,22)	(-4,4)	(-27,1)	(5,5)	(-7,10)	(1,145)	
L2C -22>	(1,245)	(15,20)	(-1,135)	(31,11)	(-34,1)	(43,3)	(23,51)	(-5,20)	(5,28)	(-24,7)	(21,23)	(-2,20)	(35,6)	(12,12)	(45,15)	(-14,11)	
L2C -21>	(3,24)	(27,30)	(18,15)	(42,10)	(32,11)	(29,16)	(-12,15)	(1,254)	(-1,149)	(28,13)	(-13,1)	(-10,13)	(-20,24)	(-33,4)	(-16,14)	(9,15)	
L2C -20>	(-1,65)	(24,15)	(-8,6)	(35,3)	(1,142)	(-3,2)	(44,5)	(6,16)	(-7,4)	(3,13)	(-2,6)	(13,4)	(25,4)	(7,9)	(9,7)	(26,9)	
L2C -19>	(-1,145)	(-8,15)	(1,243)	(2,27)	(16,21)	(3,30)	(20,41)	(29,3)	(-17,6)	(-4,16)	(6,28)	(-11,1)	(12,17)	(4,15)	(23,11)	(28,2)	
L2C -18>	(-1,97)	(1,163)	(11,1)	(-21,2)	(18,4)	(17,15)	(13,8)	(2,16)	(4,24)	(-9,6)	(21,6)	(16,12)	(-17,5)	(34,8)	(-35,1)	(-19,9)	
L2C -17>	(-16,1)	(3,23)	(-1,124)	(1,182)	(18,32)	(-22,3)	(10,14)	(42,3)	(-7,18)	(-2,28)	(25,12)	(-6,9)	(21,14)	(37,17)	(-18,13)	(14,14)	
L2C -16>	(1,147)	(2,24)	(13,20)	(-8,12)	(22,4)	(-1,121)	(-19,8)	(-3,23)	(-28,5)	(-15,1)	(18,14)	(-4,19)	(10,9)	(-7,16)	(14,20)	(-38,7)	
L2C -15>	(3,23)	(-27,1)	(52,4)	(16,50)	(-14,22)	(10,17)	(27,7)	(9,19)	(5,19)	(11,14)	(24,22)	(1,245)	(23,17)	(-3,17)	(-5,15)	(-1,115)	
L2C -14>	(1,211)	(28,12)	(11,13)	(19,28)	(43,10)	(14,17)	(4,21)	(27,11)	(5,1)	(10,20)	(2,57)	(8,32)	(3,17)	(-2,31)	(-15,22)	(-1,184)	
L2C -13>	(8,15)	(-1,51)	(30,6)	(0,8)	(-16,4)	(-3,16)	(-10,20)	(2,27)	(1,131)	(7,14)	(-13,22)	(14,18)	(-11,13)	(-12,8)	(10,9)	(-24,1)	
L2C -12>	(-6,1)	(1,166)	(-3,19)	(-2,10)	(20,13)	(-13,8)	(-11,18)	(-1,64)	(9,16)	(25,7)	(10,4)	(13,31)	(-19,5)	(32,7)	(2,22)	(-12,8)	
L2C -11>	(-2,20)	(-1,62)	(12,32)	(10,11)	(8,34)	(-18,9)	(4,1)	(17,15)	(6,14)	(19,13)	(1,134)	(16,11)	(50,2)	(-3,11)	(-21,9)	(13,9)	
L2C -10>	(-1,56)	(-7,18)	(-15,19)	(1,186)	(18,1)	(11,42)	(2,26)	(3,19)	(12,25)	(4,42)	(15,6)	(13,5)	(-3,11)	(5,19)	(-2,19)	(23,12)	
L2C -9>	(5,18)	(1,211)	(-16,6)	(-1,82)	(2,46)	(-15,8)	(25,4)	(33,9)	(-7,7)	(4,23)	(12,15)	(11,21)	(9,4)	(-8,1)	(-20,3)	(24,13)	
L2C -8>	(1,229)	(24,140)	(7,34)	(-13,17)	(-2,37)	(-10,24)	(-9,18)	(-1,146)	(-6,17)	(11,19)	(27,6)	(34,1)	(-21,9)	(-4,34)	(15,21)	(9,85)	
L2C -7>	(20,5)	(2,35)	(3,29)	(-4,26)	(-1,93)	(1,219)	(10,17)	(9,20)	(19,16)	(14,11)	(-19,13)	(-23,7)	(-21,9)	(8,118)	(4,1)	(34,6)	
L2C -6>	(1,148)	(-3,29)	(8,29)	(7,116)	(10,12)	(-26,11)	(9,1)	(-1,64)	(0,6)	(-22,5)	(4,28)	(20,5)	(-5,16)	(-11,12)	(-14,12)	(29,8)	
L2C -5>	(-5,10)	(5,7)	(1,131)	(-4,11)	(2,25)	(-1,35)	(-33,3)	(0,31)	(4,80)	(-2,13)	(7,10)	(19,4)	(22,4)	(3,13)	(6,55)	(41,1)	
L2C -4>	(2,71)	(3,168)	(1,223)	(6,30)	(5,105)	(8,22)	(12,4)	(-1,64)	(35,1)	(7,13)	(-9,5)	(-2,3)	(16,12)	(4,17)	(0,4)	(-4,9)	
L2C -3>	(1,227)	(-3,9)	(-1,83)	(5,9)	(4,87)	(-4,10)	(6,9)	(-22,4)	(-11,2)	(0,25)	(2,75)	(-16,3)	(-10,6)	(-2,8)	(8,18)	(3,14)	
L2C -2>	(0,8)	(10,5)	(3,111)	(1,177)	(2,22)	(5,7)	(8,2)	(-1,30)	(-9,4)	(-12,1)	(-8,3)	(6,10)	(4,19)	(-3,7)	(-2,7)	(-4,3)	
L2C -1>	(2,202)	(-1,82)	(4,23)	(-12,1)	(-7,7)	(1,79)	(-8,6)	(-11,3)	(0,16)	(3,34)	(-4,3)	(-2,12)	(9,11)	(5,9)	(-3,5)	(-17,8)	
L2C 0>	(0,111)	(1,155)	(-2,10)	(-1,39)	(-23,1)	(-58,1)	(3,4)	(-3,7)	(24,1)	(-8,3)	(8,2)	(2,10)	(4,2)	(9,1)	(-5,2)	(-27,1)	
L2C 1>	(1,249)	(-11,3)	(-27,2)	(6,1)	(2,8)	(18,1)	(-8,1)	(-7,1)	(15,2)	(12,2)	(-25,1)	(-24,1)	(-4,2)	(-1,1)	(-6,2)	(-35,1)	
L2C 2>	(1,229)	(2,10)	(-27,1)	(-3,1)	(-54,1)	(-1,15)	(55,1)	(26,1)	(-46,1)	(10,1)	(-5,1)	(-31,1)	(-10,2)	(6,3)	(-17,1)	(-12,1)	
L2C 3>	(16,2)	(1,179)	(2,24)	(-2,9)	(-1,19)	(-29,1)	(-26,1)	(7,1)	(-4,9)	(3,5)	(55,1)	(11,1)	(-5,1)	(5,1)	(21,1)	(4,1)	
L2C 4>	(1,199)	(2,11)	(-62,3)	(-1,33)	(-5,8)	(-24,1)	(18,1)	(-3,16)	(-2,4)	(-23,2)	(-26,3)	(-40,1)	(19,1)	(-13,1)	(3,8)	(-7,1)	
L2C 5>	(7,1)	(1,168)	(-11,2)	(13,2)	(2,9)	(-4,10)	(3,4)	(16,1)	(-2,15)	(-8,5)	(-32,2)	(-1,13)	(-23,2)	(8,4)	(-3,13)	(-45,1)	
L2C 6>	(1,209)	(-7,8)	(-5,7)	(13,1)	(-3,2)	(-1,8)	(10,2)	(-10,8)	(2,15)	(-6,2)	(-33,2)	(3,7)	(19,2)	(4,6)	(-2,22)	(5,2)	
L2C 7>	(1,204)	(-1,16)	(-9,5)	(19,2)	(-4,7)	(-6,9)	(-3,5)	(-2,9)	(38,2)	(3,10)	(12,1)	(-10,3)	(2,20)	(4,8)	(-5,3)	(-7,6)	
L2C 8>	(1,230)	(16,32)	(-9,6)	(-11,11)	(-7,18)	(8,92)	(-6,12)	(-13,1)	(2,18)	(-1,113)	(-8,5)	(-3,14)	(-2,17)	(4,5)	(-15,8)	(-31,3)	
L2C 9>	(1,250)	(-5,11)	(-12,10)	(-8,31)	(-10,12)	(-2,39)	(-7,6)	(2,19)	(18,1)	(-4,13)	(-23,5)	(0,22)	(-15,9)	(-3,11)	(3,16)	(-1,37)	
L2C 10>	(-4,1)	(-7,10)	(4,19)	(1,152)	(-1,24)	(-18,9)	(15,7)	(2,15)	(5,7)	(-28,7)	(-26,5)	(-13,4)	(-3,6)	(29,4)	(-9,13)	(25,3)	
L2C 11>	(2,12)	(9,1)	(4,5)	(-8,8)	(-13,2)	(16,3)	(-1,12)	(5,5)	(-15,6)	(8,2)	(13,2)	(-12,6)	(-48,2)	(1,163)	(-6,1)	(-10,17)	
L2C 12>	(-13,4)	(-7,6)	(-30,6)	(-33,7)	(-19,9)	(-10,9)	(1,197)	(8,17)	(-11,23)	(-1,34)	(2,16)	(4,9)	(-22,12)	(-32,10)	(-4,43)	(-20,1)	
L2C 13>	(1,131)	(32,1)	(-11,15)	(4,5)	(-16,6)	(-9,8)	(-2,11)	(-5,9)	(6,9)	(-14,10)	(0,6)	(-1,23)	(-20,5)	(5,5)	(-18,7)	(-19,4)	
L2C 14>	(2,19)	(-11,9)	(-4,10)	(1,255)	(-3,10)	(-7,13)	(-1,27)	(13,17)	(9,4)	(-2,8)	(18,1)	(-31,5)	(-19,3)	(-13,14)	(14,7)	(-58,7)	
L2C 15>	(-1,46)	(-14,38)	(1,239)	(-2,14)	(-6,9)	(-12,10)	(-16,18)	(-20,18)	(7,6)	(-3,10)	(-31,3)	(6,6)	(3,20)	(-10,8)	(-38,1)	(-11,11)	
L2C 16>	(-44,15)	(-15,36)	(1,214)	(-48,23)	(3,1)	(-20,12)	(-4,26)	(-58,8)	(-33,10)	(-14,16)	(-18,12)	(16,100)	(-29,13)	(9,7)	(2,30)	(-1,34)	
L2C 17>	(1,230)	(-44,1)	(-20,10)	(-9,13)	(3,27)	(-1,60)	(-39,4)	(4,31)	(-28,12)	(-24,6)	(-26,13)	(-13,14)	(9,18)	(-16,39)	(19,4)	(-10,9)	
L2C 18>	(-2,7)	(1,154)	(-27,10)	(7,15)	(-28,12)	(-14,18)	(-13,9)	(-1,44)	(-5,9)	(-31,8)	(-26,14)	(4,19)	(32,6)	(-17,33)	(28,3)	(11,1)	
L2C 19>	(1,190)	(-29,8)	(-6,19)	(13,4)	(-14,16)	(-7,1)	(-3,12)	(-21,17)	(-1,76)	(2,16)	(11,9)	(-16,18)	(23,3)	(16,11)	(-26,14)	(10,6)	
L2C 20>	(1,151)	(-1,34)	(3,28)	(-2,16)	(-24,5)	(-26,10)	(-40,5)	(-33,6)	(-19,1)	(-25,9)	(-16,17)	(15,4)	(-22,11)	(-8,18)	(-13,13)	(5,5)	
L2C 21>	(-9,4)	(-3,6)	(-20,26)	(-1,47)	(-54,1)	(-16,9)	(-26,12)	(-11,10)	(-18,13)	(1,145)	(5,11)	(3,11)	(-30,3)	(2,15)	(9,10)	(-31,5)	
L2C 22>	(-2,11)	(5,18)	(-1,69)	(26,3)	(2,18)	(6,20)	(1,159)	(-11,12)	(19,5)	(-21,41)	(-13,9)	(-5,8)	(3,1)	(16,4)	(-32,12)	(-26,13)	
L2C 23>	(-38,1)	(-28,28)	(-1,142)	(-56,7)	(1,249)	(18,7)	(-3,16)	(-36,19)	(-12,26)	(2,36)	(-45,7)	(29,9)	(-24,28)	(-4,13)	(-18,18)	(-6,22)	
L2C 24>	(-14,1)	(11,14)	(-3,27)	(-8,107)	(7,19)	(-1,134)	(1,253)	(-12,14)	(-2,31)	(-21,49)	(5,15)	(4,23)	(-42,19)	(-17,26)	(-23,83)	(-22,16)	
L2C 25>	(1,147)	(15,1)	(-2,30)	(-23,27)	(-6,17)	(23,8)	(11,8)	(-41,9)	(-27,18)	(-21,13)	(-5,24)	(18,2)	(-7,16)	(-45,6)	(14,16)	(-1,74)	
L2C 26>	(1,247)	(-1,149)	(-8,31)	(-5,40)	(-23,31)	(-22,51)	(-55,1)	(-13,32)	(-25,103)	(-10,30)	(-12,34)	(8,27)	(-7,25)	(17,22)	(-6,21)	(-28,41)	
L2C 27>	(-18,31)	(-25,37)	(12,10)	(1,213)	(-34,25)	(-9,18)	(-1,134)	(-22,32)	(-37,19)	(-31,1)	(-8,24)	(-32,17)	(-26,64)	(-46,10)	(3,22)	(-16,21)	
L2C 28>	(-27,147)	(-17,1)	(-20,19)	(-13,25)	(-21,40)	(-50,11)	(-9,37)	(-26,37)	(-1,153)	(15,16)	(-7,38)	(-18,20)	(1,244)	(-44,14)	(-2,35)	(-4,36)	
L2C 29>	(-44,43)	(-27,48)	(2,1)	(-6,53)	(14,9)	(-19,22)	(-32,31)	(-33,32)	(-58,11)	(-18,39)	(-28,64)	(1,248)	(-36,26)	(-42,34)	(-51,11)	(-1,202)	
L2C 30>	(1,195)	(-1,126)	(-6,42)	(-11,25)	(2,44)	(-25,39)	(-7,1)	(-40,12)	(-3,41)	(-19,26)	(-34,23)	(15,8)	(-39,41)	(-10,25)	(-23,16)	(-17,28)	
L2C 31>	(-5,79)	(-30,160)	(-17,48)	(1,232)	(-55,22)	(9,28)	(-1,174)	(-24,1)	(-25,41)	(-21,73)	(-57,17)	(-26,49)	(-32,50)	(2,54)	(-41,16)	(-40,36)	
L2C 32>	(-15,29)	(-7,46)	(-9,1)	(1,154)	(-16,45)	(-22,26)	(-1,147)	(-25,29)	(11,9)	(-24,30)	(-8,49)	(-36,28)	(-3,19)	(-5,36)	(4,22)	(2,59)	
L2C 33>	(-30,35)	(-28,34)	(7,22)	(-4,18)	(1,153)	(-14,21)	(-1,139)	(-18,24)	(-38,9)	(-2,15)	(-21,1)	(-47,18)	(8,19)	(-20,52)	(-32,62)	(2,38)	
L2C 34>	(-32,19)	(-33,13)	(-43,14)	(-36,16)	(-22,5)	(-21,7)	(-18,17)	(3,1)	(10,4)	(8,6)	(-15,10)	(2,18)	(-10,17)	(1,172)	(-1,64)	(-27,8)	
L2C 35>	(-9,14)	(-44,18)	(1,185)	(-32,1)	(-12,23)	(-6,20)	(-31,27)	(-5,15)	(-13,28)	(10,32)	(-28,13)	(-24,40)	(-58,8)	(-1,117)	(2,21)	(-33,24)	
L2C 36>	(-1,129)	(-35,43)	(1,215)	(-14,25)	(-12,42)	(-38,39)	(-36,23)	(26,1)	(-28,29)	(-52,10)	(-5,23)	(-58,4)	(-34,34)	(-39,18)	(-30,18)	(3,22)	
L2C 37>	(1,199)	(-10,41)	(-24,49)	(-47,10)	(7,38)	(-6,27)	(-31,40)	(-1,215)	(-25,1)	(-34,35)	(-14,33)	(11,34)	(-51,25)	(-9,13)	(-35,66)	(-50,6)	
L2C 38>	(1,227)	(-31,21)	(-36,61)	(7,28)	(-19,23)	(-1,213)	(-8,31)	(-2,90)	(-47,21)	(5,40)	(-46,22)	(-32,29)	(3,41)	(-26,28)	(-39,1)	(-16,56)	
L2C 39>	(1,134)	(-1,56)	(-34,9)	(-47,1)	(-38,12)	(-32,3)	(2,15)	(-45,9)	(-7,9)	(-27,6)	(-37,9)	(-52,2)	(-29,5)	(11,7)	(4,3)	(-43,7)	
L2C 40>	(-4,1)	(1,208)	(-1,177)	(12,16)	(-42,29)	(-8,43)	(-28,16)	(-39,94)	(-13,40)	(-43,6)	(-36,39)	(6,61)	(-40,65)	(-31,35)	(-45,40)	(-37,47)	
L2C 41>	(1,179)	(-9,27)	(-1,169)	(-18,26)	(-17,32)	(-24,26)	(-11,32)	(-14,1)	(11,18)	(-37,13)	(-40,60)	(8,10)	(-19,35)	(-28,20)	(-36,63)	(-8,36)	
L2C 42>	(1,170)	(7,27)	(-23,36)	(-12,37)	(-53,1)	(-44,22)	(-33,30)	(-16,25)	(-40,42)	(-1,146)	(-41,48)	(-36,15)	(-9,14)	(-43,22)	(-27,29)	(-29,19)	
L2C 43>	(-41,36)	(1,171)	(-27,17)	(-33,41)	(-1,195)	(-18,26)	(-2,37)	(5,1)	(-25,25)	(-44,37)	(-11,45)	(-42,40)	(-16,46)	(-53,19)	(-40,18)	(-48,41)	
L2C 44>	(-1,176)	(-43,82)	(-14,31)	(-3,1)	(-17,26)	(1,134)	(-9,21)	(-40,26)	(-39,19)	(-15,21)	(-38,63)	(-34,21)	(-49,20)	(-28,32)	(-2,30)	(-18,17)	
L2C 45>	(3,1)	(1,161)	(-4,53)	(-1,141)	(-28,19)	(-41,34)	(-44,54)	(-50,36)	(-10,44)	(-49,36)	(-15,23)	(-35,19)	(2,54)	(-14,26)	(-33,23)	(-16,17)	
L2C 46>	(-3,68)	(-13,41)	(1,138)	(-45,51)	(-1,134)	(-23,1)	(-12,20)	(-32,12)	(-19,20)	(-52,47)	(-35,17)	(-47,21)	(-16,30)	(-6,24)	(4,13)	(-54,16)	
L2C 47>	(-1,180)	(-16,15)	(1,106)	(-47,27)	(-3,40)	(-6,11)	(-13,19)	(-26,14)	(-18,23)	(-46,62)	(-44,1)	(-49,19)	(-10,27)	(-22,68)	(-45,35)	(-33,57)	
L2C 48>	(-5,46)	(-28,12)	(1,90)	(-34,41)	(-1,120)	(-6,27)	(-23,16)	(-33,32)	(-32,24)	(-15,35)	(-9,25)	(-13,1)	(-14,21)	(-43,6)	(-8,18)	(-12,27)	
L2C 49>	(-48,37)	(-11,43)	(-55,35)	(-24,1)	(-46,23)	(-44,14)	(1,116)	(-40,9)	(-13,29)	(-1,122)	(-23,12)	(-15,30)	(-14,26)	(-12,28)	(-16,22)	(2,42)	
L2C 50>	(-27,31)	(-33,1)	(1,139)	(-12,29)	(-47,29)	(-1,92)	(-46,25)	(-19,34)	(-5,10)	(-54,18)	(-23,18)	(-16,51)	(-37,7)	(-24,25)	(-40,31)	(-10,45)	
L2C 51>	(-1,143)	(1,68)	(-4,32)	(-48,14)	(-37,44)	(-13,31)	(-44,20)	(-47,17)	(-26,1)	(-3,42)	(-30,31)	(-24,33)	(-8,33)	(-10,18)	(-54,25)	(-58,26)	
L2C 52>	(-1,138)	(-11,17)	(1,58)	(-37,13)	(-38,11)	(-54,1)	(-43,10)	(-48,31)	(-35,42)	(-49,15)	(-55,13)	(-2,7)	(-34,19)	(-53,35)	(-45,11)	(-12,54)	
L2C 53>	(-1,137)	(1,122)	(-7,41)	(-4,48)	(-52,73)	(-5,17)	(-38,35)	(-6,35)	(-45,15)	(-2,32)	(-40,5)	(-8,16)	(-31,14)	(-13,19)	(-51,1)	(-11,24)	
L2C 54>	(-18,25)	(-2,61)	(-12,24)	(-23,36)	(-5,15)	(-27,1)	(-1,97)	(1,86)	(-56,13)	(-17,13)	(-4,17)	(-39,15)	(-36,17)	(-31,25)	(-37,13)	(-10,45)	
L2C 55>	(-1,123)	(-63,14)	(-44,30)	(-10,17)	(1,59)	(-61,5)	(-6,13)	(-26,29)	(-13,12)	(-19,39)	(-47,19)	(-41,27)	(-31,30)	(-18,1)	(-42,11)	(-39,13)	
L2C 56>	(-38,17)	(1,49)	(-63,24)	(-3,23)	(-6,27)	(-55,12)	(-2,16)	(-54,14)	(-33,8)	(-1,75)	(-19,1)	(-16,20)	(-50,8)	(-43,7)	(-39,21)	(-53,16)	
L2C 57>	(1,29)	(-63,1)	(-10,24)	(5,9)	(-54,16)	(-11,5)	(-41,19)	(-17,4)	(-46,4)	(-2,12)	(-1,47)	(-6,16)	(-4,6)	(3,5)	(-55,17)	(-56,24)	
L2C 58>	(-40,20)	(1,70)	(-57,1)	(-8,10)	(3,8)	(-55,7)	(-38,48)	(-32,10)	(-39,17)	(-1,67)	(-16,16)	(-44,16)	(-5,2)	(-52,3)	(-56,24)	(-27,20)	
L2C 59>	(-52,21)	(-16,5)	(-58,20)	(1,34)	(-53,1)	(-49,14)	(-37,5)	(-1,109)	(-55,3)	(-13,9)	(-57,13)	(-28,2)	(-46,12)	(-18,26)	(-42,2)	(-4,7)	
L2C 60>	(-16,4)	(-49,7)	(-28,5)	(-27,3)	(-51,4)	(-23,22)	(-43,2)	(-38,2)	(-21,1)	(-1,58)	(-2,10)	(-14,5)	(-48,12)	(-7,7)	(-20,6)	(1,27)	
L2C 61>	(-11,14)	(-29,3)	(-1,15)	(-44,16)	(-18,10)	(-35,3)	(-59,6)	(1,12)	(-5,17)	(-52,7)	(-17,7)	(-39,15)	(-55,8)	(-8,8)	(-13,4)	(-43,1)	
L2C 62>	(-5,1)	(-39,1)	(-1,33)	(-28,1)	(-14,1)	(1,10)	(-34,5)	(-23,4)	(-55,10)	(-2,5)	(-31,4)	(-8,10)	(-50,1)	(-41,6)	(-35,2)	(-33,4)	
L2C 63>	(-16,4)	(-17,6)	(-55,24)	(-6,7)	(-31,3)	(-40,2)	(-2,1)	(-1,9)	(-62,2)	(-9,6)	(-54,1)	(-44,4)	(-26,5)	(-4,5)	(-59,1)	(-5,10)	
Channel_0_RQ_row_buffer_hit 1193972
Channel_0_RQ_row_buffer_miss 555920
Channel_0_WQ_row_buffer_hit 31725
Channel_0_WQ_row_buffer_miss 69876
Channel_0_WQ_full 0
Channel_0_dbus_congested 1206846

avg_congested_cycle 11
